* SPICE NETLIST
***************************************

.SUBCKT SRAMArray gnd! !BL0 BL0 !BL1 BL1 !BL2 BL2 !BL3 BL3 !BL4 BL4 !BL5 BL5 !BL6 BL6 !BL7 BL7 !BL8 BL8 !BL9
+ BL9 !BL10 BL10 !BL11 BL11 !BL12 BL12 !BL13 BL13 !BL14 BL14 !BL15 BL15 !BL16 BL16 !BL17 BL17 !BL18 BL18 !BL19
+ BL19 !BL20 BL20 !BL21 BL21 !BL22 BL22 !BL23 BL23 !BL24 BL24 !BL25 BL25 !BL26 BL26 !BL27 BL27 !BL28 BL28 !BL29
+ BL29 !BL30 BL30 !BL31 BL31 WL15 WL14 WL13 WL12 WL11 WL10 WL9 WL8 WL7 WL6 WL5 WL4 WL3 WL2 WL1
+ WL0 clk vdd!
** N=1107 EP=83 IP=0 FDC=3168
M0 82 WL15 !BL0 gnd! NMOS_VTL L=5e-08 W=1.75e-07 AD=8.51875e-14 AS=4.1125e-14 PD=1.27e-06 PS=8.2e-07 $X=1175 $Y=1085 $D=1
M1 83 WL14 !BL0 gnd! NMOS_VTL L=5e-08 W=1.75e-07 AD=8.51875e-14 AS=4.1125e-14 PD=1.27e-06 PS=8.2e-07 $X=1175 $Y=4575 $D=1
M2 84 WL13 !BL0 gnd! NMOS_VTL L=5e-08 W=1.75e-07 AD=8.51875e-14 AS=4.1125e-14 PD=1.27e-06 PS=8.2e-07 $X=1175 $Y=8065 $D=1
M3 85 WL12 !BL0 gnd! NMOS_VTL L=5e-08 W=1.75e-07 AD=8.51875e-14 AS=4.1125e-14 PD=1.27e-06 PS=8.2e-07 $X=1175 $Y=11555 $D=1
M4 86 WL11 !BL0 gnd! NMOS_VTL L=5e-08 W=1.75e-07 AD=8.51875e-14 AS=4.1125e-14 PD=1.27e-06 PS=8.2e-07 $X=1175 $Y=15045 $D=1
M5 87 WL10 !BL0 gnd! NMOS_VTL L=5e-08 W=1.75e-07 AD=8.51875e-14 AS=4.1125e-14 PD=1.27e-06 PS=8.2e-07 $X=1175 $Y=18535 $D=1
M6 88 WL9 !BL0 gnd! NMOS_VTL L=5e-08 W=1.75e-07 AD=8.51875e-14 AS=4.1125e-14 PD=1.27e-06 PS=8.2e-07 $X=1175 $Y=22025 $D=1
M7 89 WL8 !BL0 gnd! NMOS_VTL L=5e-08 W=1.75e-07 AD=8.51875e-14 AS=4.1125e-14 PD=1.27e-06 PS=8.2e-07 $X=1175 $Y=25515 $D=1
M8 90 WL7 !BL0 gnd! NMOS_VTL L=5e-08 W=1.75e-07 AD=8.51875e-14 AS=4.1125e-14 PD=1.27e-06 PS=8.2e-07 $X=1175 $Y=29005 $D=1
M9 91 WL6 !BL0 gnd! NMOS_VTL L=5e-08 W=1.75e-07 AD=8.51875e-14 AS=4.1125e-14 PD=1.27e-06 PS=8.2e-07 $X=1175 $Y=32495 $D=1
M10 92 WL5 !BL0 gnd! NMOS_VTL L=5e-08 W=1.75e-07 AD=8.51875e-14 AS=4.1125e-14 PD=1.27e-06 PS=8.2e-07 $X=1175 $Y=35985 $D=1
M11 93 WL4 !BL0 gnd! NMOS_VTL L=5e-08 W=1.75e-07 AD=8.51875e-14 AS=4.1125e-14 PD=1.27e-06 PS=8.2e-07 $X=1175 $Y=39475 $D=1
M12 94 WL3 !BL0 gnd! NMOS_VTL L=5e-08 W=1.75e-07 AD=8.51875e-14 AS=4.1125e-14 PD=1.27e-06 PS=8.2e-07 $X=1175 $Y=42965 $D=1
M13 95 WL2 !BL0 gnd! NMOS_VTL L=5e-08 W=1.75e-07 AD=8.51875e-14 AS=4.1125e-14 PD=1.27e-06 PS=8.2e-07 $X=1175 $Y=46455 $D=1
M14 96 WL1 !BL0 gnd! NMOS_VTL L=5e-08 W=1.75e-07 AD=8.51875e-14 AS=4.1125e-14 PD=1.27e-06 PS=8.2e-07 $X=1175 $Y=49945 $D=1
M15 97 WL0 !BL0 gnd! NMOS_VTL L=5e-08 W=1.75e-07 AD=8.51875e-14 AS=4.1125e-14 PD=1.27e-06 PS=8.2e-07 $X=1175 $Y=53435 $D=1
M16 gnd! 99 82 gnd! NMOS_VTL L=5e-08 W=2e-07 AD=8.65375e-14 AS=8.51875e-14 PD=1.605e-06 PS=1.27e-06 $X=1900 $Y=1330 $D=1
M17 gnd! 100 83 gnd! NMOS_VTL L=5e-08 W=2e-07 AD=8.65375e-14 AS=8.51875e-14 PD=1.605e-06 PS=1.27e-06 $X=1900 $Y=4820 $D=1
M18 gnd! 101 84 gnd! NMOS_VTL L=5e-08 W=2e-07 AD=8.65375e-14 AS=8.51875e-14 PD=1.605e-06 PS=1.27e-06 $X=1900 $Y=8310 $D=1
M19 gnd! 102 85 gnd! NMOS_VTL L=5e-08 W=2e-07 AD=8.65375e-14 AS=8.51875e-14 PD=1.605e-06 PS=1.27e-06 $X=1900 $Y=11800 $D=1
M20 gnd! 103 86 gnd! NMOS_VTL L=5e-08 W=2e-07 AD=8.65375e-14 AS=8.51875e-14 PD=1.605e-06 PS=1.27e-06 $X=1900 $Y=15290 $D=1
M21 gnd! 104 87 gnd! NMOS_VTL L=5e-08 W=2e-07 AD=8.65375e-14 AS=8.51875e-14 PD=1.605e-06 PS=1.27e-06 $X=1900 $Y=18780 $D=1
M22 gnd! 105 88 gnd! NMOS_VTL L=5e-08 W=2e-07 AD=8.65375e-14 AS=8.51875e-14 PD=1.605e-06 PS=1.27e-06 $X=1900 $Y=22270 $D=1
M23 gnd! 106 89 gnd! NMOS_VTL L=5e-08 W=2e-07 AD=8.65375e-14 AS=8.51875e-14 PD=1.605e-06 PS=1.27e-06 $X=1900 $Y=25760 $D=1
M24 gnd! 107 90 gnd! NMOS_VTL L=5e-08 W=2e-07 AD=8.65375e-14 AS=8.51875e-14 PD=1.605e-06 PS=1.27e-06 $X=1900 $Y=29250 $D=1
M25 gnd! 108 91 gnd! NMOS_VTL L=5e-08 W=2e-07 AD=8.65375e-14 AS=8.51875e-14 PD=1.605e-06 PS=1.27e-06 $X=1900 $Y=32740 $D=1
M26 gnd! 109 92 gnd! NMOS_VTL L=5e-08 W=2e-07 AD=8.65375e-14 AS=8.51875e-14 PD=1.605e-06 PS=1.27e-06 $X=1900 $Y=36230 $D=1
M27 gnd! 110 93 gnd! NMOS_VTL L=5e-08 W=2e-07 AD=8.65375e-14 AS=8.51875e-14 PD=1.605e-06 PS=1.27e-06 $X=1900 $Y=39720 $D=1
M28 gnd! 111 94 gnd! NMOS_VTL L=5e-08 W=2e-07 AD=8.65375e-14 AS=8.51875e-14 PD=1.605e-06 PS=1.27e-06 $X=1900 $Y=43210 $D=1
M29 gnd! 112 95 gnd! NMOS_VTL L=5e-08 W=2e-07 AD=8.65375e-14 AS=8.51875e-14 PD=1.605e-06 PS=1.27e-06 $X=1900 $Y=46700 $D=1
M30 gnd! 113 96 gnd! NMOS_VTL L=5e-08 W=2e-07 AD=8.65375e-14 AS=8.51875e-14 PD=1.605e-06 PS=1.27e-06 $X=1900 $Y=50190 $D=1
M31 gnd! 114 97 gnd! NMOS_VTL L=5e-08 W=2e-07 AD=8.65375e-14 AS=8.51875e-14 PD=1.605e-06 PS=1.27e-06 $X=1900 $Y=53680 $D=1
M32 99 82 gnd! gnd! NMOS_VTL L=5e-08 W=2e-07 AD=8.16875e-14 AS=8.65375e-14 PD=1.235e-06 PS=1.605e-06 $X=2490 $Y=1330 $D=1
M33 100 83 gnd! gnd! NMOS_VTL L=5e-08 W=2e-07 AD=8.16875e-14 AS=8.65375e-14 PD=1.235e-06 PS=1.605e-06 $X=2490 $Y=4820 $D=1
M34 101 84 gnd! gnd! NMOS_VTL L=5e-08 W=2e-07 AD=8.16875e-14 AS=8.65375e-14 PD=1.235e-06 PS=1.605e-06 $X=2490 $Y=8310 $D=1
M35 102 85 gnd! gnd! NMOS_VTL L=5e-08 W=2e-07 AD=8.16875e-14 AS=8.65375e-14 PD=1.235e-06 PS=1.605e-06 $X=2490 $Y=11800 $D=1
M36 103 86 gnd! gnd! NMOS_VTL L=5e-08 W=2e-07 AD=8.16875e-14 AS=8.65375e-14 PD=1.235e-06 PS=1.605e-06 $X=2490 $Y=15290 $D=1
M37 104 87 gnd! gnd! NMOS_VTL L=5e-08 W=2e-07 AD=8.16875e-14 AS=8.65375e-14 PD=1.235e-06 PS=1.605e-06 $X=2490 $Y=18780 $D=1
M38 105 88 gnd! gnd! NMOS_VTL L=5e-08 W=2e-07 AD=8.16875e-14 AS=8.65375e-14 PD=1.235e-06 PS=1.605e-06 $X=2490 $Y=22270 $D=1
M39 106 89 gnd! gnd! NMOS_VTL L=5e-08 W=2e-07 AD=8.16875e-14 AS=8.65375e-14 PD=1.235e-06 PS=1.605e-06 $X=2490 $Y=25760 $D=1
M40 107 90 gnd! gnd! NMOS_VTL L=5e-08 W=2e-07 AD=8.16875e-14 AS=8.65375e-14 PD=1.235e-06 PS=1.605e-06 $X=2490 $Y=29250 $D=1
M41 108 91 gnd! gnd! NMOS_VTL L=5e-08 W=2e-07 AD=8.16875e-14 AS=8.65375e-14 PD=1.235e-06 PS=1.605e-06 $X=2490 $Y=32740 $D=1
M42 109 92 gnd! gnd! NMOS_VTL L=5e-08 W=2e-07 AD=8.16875e-14 AS=8.65375e-14 PD=1.235e-06 PS=1.605e-06 $X=2490 $Y=36230 $D=1
M43 110 93 gnd! gnd! NMOS_VTL L=5e-08 W=2e-07 AD=8.16875e-14 AS=8.65375e-14 PD=1.235e-06 PS=1.605e-06 $X=2490 $Y=39720 $D=1
M44 111 94 gnd! gnd! NMOS_VTL L=5e-08 W=2e-07 AD=8.16875e-14 AS=8.65375e-14 PD=1.235e-06 PS=1.605e-06 $X=2490 $Y=43210 $D=1
M45 112 95 gnd! gnd! NMOS_VTL L=5e-08 W=2e-07 AD=8.16875e-14 AS=8.65375e-14 PD=1.235e-06 PS=1.605e-06 $X=2490 $Y=46700 $D=1
M46 113 96 gnd! gnd! NMOS_VTL L=5e-08 W=2e-07 AD=8.16875e-14 AS=8.65375e-14 PD=1.235e-06 PS=1.605e-06 $X=2490 $Y=50190 $D=1
M47 114 97 gnd! gnd! NMOS_VTL L=5e-08 W=2e-07 AD=8.16875e-14 AS=8.65375e-14 PD=1.235e-06 PS=1.605e-06 $X=2490 $Y=53680 $D=1
M48 99 WL15 BL0 gnd! NMOS_VTL L=5e-08 W=1.75e-07 AD=8.16875e-14 AS=4.1125e-14 PD=1.235e-06 PS=8.2e-07 $X=2930 $Y=1085 $D=1
M49 100 WL14 BL0 gnd! NMOS_VTL L=5e-08 W=1.75e-07 AD=8.16875e-14 AS=4.1125e-14 PD=1.235e-06 PS=8.2e-07 $X=2930 $Y=4575 $D=1
M50 101 WL13 BL0 gnd! NMOS_VTL L=5e-08 W=1.75e-07 AD=8.16875e-14 AS=4.1125e-14 PD=1.235e-06 PS=8.2e-07 $X=2930 $Y=8065 $D=1
M51 102 WL12 BL0 gnd! NMOS_VTL L=5e-08 W=1.75e-07 AD=8.16875e-14 AS=4.1125e-14 PD=1.235e-06 PS=8.2e-07 $X=2930 $Y=11555 $D=1
M52 103 WL11 BL0 gnd! NMOS_VTL L=5e-08 W=1.75e-07 AD=8.16875e-14 AS=4.1125e-14 PD=1.235e-06 PS=8.2e-07 $X=2930 $Y=15045 $D=1
M53 104 WL10 BL0 gnd! NMOS_VTL L=5e-08 W=1.75e-07 AD=8.16875e-14 AS=4.1125e-14 PD=1.235e-06 PS=8.2e-07 $X=2930 $Y=18535 $D=1
M54 105 WL9 BL0 gnd! NMOS_VTL L=5e-08 W=1.75e-07 AD=8.16875e-14 AS=4.1125e-14 PD=1.235e-06 PS=8.2e-07 $X=2930 $Y=22025 $D=1
M55 106 WL8 BL0 gnd! NMOS_VTL L=5e-08 W=1.75e-07 AD=8.16875e-14 AS=4.1125e-14 PD=1.235e-06 PS=8.2e-07 $X=2930 $Y=25515 $D=1
M56 107 WL7 BL0 gnd! NMOS_VTL L=5e-08 W=1.75e-07 AD=8.16875e-14 AS=4.1125e-14 PD=1.235e-06 PS=8.2e-07 $X=2930 $Y=29005 $D=1
M57 108 WL6 BL0 gnd! NMOS_VTL L=5e-08 W=1.75e-07 AD=8.16875e-14 AS=4.1125e-14 PD=1.235e-06 PS=8.2e-07 $X=2930 $Y=32495 $D=1
M58 109 WL5 BL0 gnd! NMOS_VTL L=5e-08 W=1.75e-07 AD=8.16875e-14 AS=4.1125e-14 PD=1.235e-06 PS=8.2e-07 $X=2930 $Y=35985 $D=1
M59 110 WL4 BL0 gnd! NMOS_VTL L=5e-08 W=1.75e-07 AD=8.16875e-14 AS=4.1125e-14 PD=1.235e-06 PS=8.2e-07 $X=2930 $Y=39475 $D=1
M60 111 WL3 BL0 gnd! NMOS_VTL L=5e-08 W=1.75e-07 AD=8.16875e-14 AS=4.1125e-14 PD=1.235e-06 PS=8.2e-07 $X=2930 $Y=42965 $D=1
M61 112 WL2 BL0 gnd! NMOS_VTL L=5e-08 W=1.75e-07 AD=8.16875e-14 AS=4.1125e-14 PD=1.235e-06 PS=8.2e-07 $X=2930 $Y=46455 $D=1
M62 113 WL1 BL0 gnd! NMOS_VTL L=5e-08 W=1.75e-07 AD=8.16875e-14 AS=4.1125e-14 PD=1.235e-06 PS=8.2e-07 $X=2930 $Y=49945 $D=1
M63 114 WL0 BL0 gnd! NMOS_VTL L=5e-08 W=1.75e-07 AD=8.16875e-14 AS=4.1125e-14 PD=1.235e-06 PS=8.2e-07 $X=2930 $Y=53435 $D=1
M64 115 WL15 !BL1 gnd! NMOS_VTL L=5e-08 W=1.75e-07 AD=8.51875e-14 AS=4.1125e-14 PD=1.27e-06 PS=8.2e-07 $X=4280 $Y=1085 $D=1
M65 116 WL14 !BL1 gnd! NMOS_VTL L=5e-08 W=1.75e-07 AD=8.51875e-14 AS=4.1125e-14 PD=1.27e-06 PS=8.2e-07 $X=4280 $Y=4575 $D=1
M66 117 WL13 !BL1 gnd! NMOS_VTL L=5e-08 W=1.75e-07 AD=8.51875e-14 AS=4.1125e-14 PD=1.27e-06 PS=8.2e-07 $X=4280 $Y=8065 $D=1
M67 118 WL12 !BL1 gnd! NMOS_VTL L=5e-08 W=1.75e-07 AD=8.51875e-14 AS=4.1125e-14 PD=1.27e-06 PS=8.2e-07 $X=4280 $Y=11555 $D=1
M68 119 WL11 !BL1 gnd! NMOS_VTL L=5e-08 W=1.75e-07 AD=8.51875e-14 AS=4.1125e-14 PD=1.27e-06 PS=8.2e-07 $X=4280 $Y=15045 $D=1
M69 120 WL10 !BL1 gnd! NMOS_VTL L=5e-08 W=1.75e-07 AD=8.51875e-14 AS=4.1125e-14 PD=1.27e-06 PS=8.2e-07 $X=4280 $Y=18535 $D=1
M70 121 WL9 !BL1 gnd! NMOS_VTL L=5e-08 W=1.75e-07 AD=8.51875e-14 AS=4.1125e-14 PD=1.27e-06 PS=8.2e-07 $X=4280 $Y=22025 $D=1
M71 122 WL8 !BL1 gnd! NMOS_VTL L=5e-08 W=1.75e-07 AD=8.51875e-14 AS=4.1125e-14 PD=1.27e-06 PS=8.2e-07 $X=4280 $Y=25515 $D=1
M72 123 WL7 !BL1 gnd! NMOS_VTL L=5e-08 W=1.75e-07 AD=8.51875e-14 AS=4.1125e-14 PD=1.27e-06 PS=8.2e-07 $X=4280 $Y=29005 $D=1
M73 124 WL6 !BL1 gnd! NMOS_VTL L=5e-08 W=1.75e-07 AD=8.51875e-14 AS=4.1125e-14 PD=1.27e-06 PS=8.2e-07 $X=4280 $Y=32495 $D=1
M74 125 WL5 !BL1 gnd! NMOS_VTL L=5e-08 W=1.75e-07 AD=8.51875e-14 AS=4.1125e-14 PD=1.27e-06 PS=8.2e-07 $X=4280 $Y=35985 $D=1
M75 126 WL4 !BL1 gnd! NMOS_VTL L=5e-08 W=1.75e-07 AD=8.51875e-14 AS=4.1125e-14 PD=1.27e-06 PS=8.2e-07 $X=4280 $Y=39475 $D=1
M76 127 WL3 !BL1 gnd! NMOS_VTL L=5e-08 W=1.75e-07 AD=8.51875e-14 AS=4.1125e-14 PD=1.27e-06 PS=8.2e-07 $X=4280 $Y=42965 $D=1
M77 128 WL2 !BL1 gnd! NMOS_VTL L=5e-08 W=1.75e-07 AD=8.51875e-14 AS=4.1125e-14 PD=1.27e-06 PS=8.2e-07 $X=4280 $Y=46455 $D=1
M78 129 WL1 !BL1 gnd! NMOS_VTL L=5e-08 W=1.75e-07 AD=8.51875e-14 AS=4.1125e-14 PD=1.27e-06 PS=8.2e-07 $X=4280 $Y=49945 $D=1
M79 130 WL0 !BL1 gnd! NMOS_VTL L=5e-08 W=1.75e-07 AD=8.51875e-14 AS=4.1125e-14 PD=1.27e-06 PS=8.2e-07 $X=4280 $Y=53435 $D=1
M80 gnd! 131 115 gnd! NMOS_VTL L=5e-08 W=2e-07 AD=8.65375e-14 AS=8.51875e-14 PD=1.605e-06 PS=1.27e-06 $X=5005 $Y=1330 $D=1
M81 gnd! 132 116 gnd! NMOS_VTL L=5e-08 W=2e-07 AD=8.65375e-14 AS=8.51875e-14 PD=1.605e-06 PS=1.27e-06 $X=5005 $Y=4820 $D=1
M82 gnd! 133 117 gnd! NMOS_VTL L=5e-08 W=2e-07 AD=8.65375e-14 AS=8.51875e-14 PD=1.605e-06 PS=1.27e-06 $X=5005 $Y=8310 $D=1
M83 gnd! 134 118 gnd! NMOS_VTL L=5e-08 W=2e-07 AD=8.65375e-14 AS=8.51875e-14 PD=1.605e-06 PS=1.27e-06 $X=5005 $Y=11800 $D=1
M84 gnd! 135 119 gnd! NMOS_VTL L=5e-08 W=2e-07 AD=8.65375e-14 AS=8.51875e-14 PD=1.605e-06 PS=1.27e-06 $X=5005 $Y=15290 $D=1
M85 gnd! 136 120 gnd! NMOS_VTL L=5e-08 W=2e-07 AD=8.65375e-14 AS=8.51875e-14 PD=1.605e-06 PS=1.27e-06 $X=5005 $Y=18780 $D=1
M86 gnd! 137 121 gnd! NMOS_VTL L=5e-08 W=2e-07 AD=8.65375e-14 AS=8.51875e-14 PD=1.605e-06 PS=1.27e-06 $X=5005 $Y=22270 $D=1
M87 gnd! 138 122 gnd! NMOS_VTL L=5e-08 W=2e-07 AD=8.65375e-14 AS=8.51875e-14 PD=1.605e-06 PS=1.27e-06 $X=5005 $Y=25760 $D=1
M88 gnd! 139 123 gnd! NMOS_VTL L=5e-08 W=2e-07 AD=8.65375e-14 AS=8.51875e-14 PD=1.605e-06 PS=1.27e-06 $X=5005 $Y=29250 $D=1
M89 gnd! 140 124 gnd! NMOS_VTL L=5e-08 W=2e-07 AD=8.65375e-14 AS=8.51875e-14 PD=1.605e-06 PS=1.27e-06 $X=5005 $Y=32740 $D=1
M90 gnd! 141 125 gnd! NMOS_VTL L=5e-08 W=2e-07 AD=8.65375e-14 AS=8.51875e-14 PD=1.605e-06 PS=1.27e-06 $X=5005 $Y=36230 $D=1
M91 gnd! 142 126 gnd! NMOS_VTL L=5e-08 W=2e-07 AD=8.65375e-14 AS=8.51875e-14 PD=1.605e-06 PS=1.27e-06 $X=5005 $Y=39720 $D=1
M92 gnd! 143 127 gnd! NMOS_VTL L=5e-08 W=2e-07 AD=8.65375e-14 AS=8.51875e-14 PD=1.605e-06 PS=1.27e-06 $X=5005 $Y=43210 $D=1
M93 gnd! 144 128 gnd! NMOS_VTL L=5e-08 W=2e-07 AD=8.65375e-14 AS=8.51875e-14 PD=1.605e-06 PS=1.27e-06 $X=5005 $Y=46700 $D=1
M94 gnd! 145 129 gnd! NMOS_VTL L=5e-08 W=2e-07 AD=8.65375e-14 AS=8.51875e-14 PD=1.605e-06 PS=1.27e-06 $X=5005 $Y=50190 $D=1
M95 gnd! 146 130 gnd! NMOS_VTL L=5e-08 W=2e-07 AD=8.65375e-14 AS=8.51875e-14 PD=1.605e-06 PS=1.27e-06 $X=5005 $Y=53680 $D=1
M96 131 115 gnd! gnd! NMOS_VTL L=5e-08 W=2e-07 AD=8.16875e-14 AS=8.65375e-14 PD=1.235e-06 PS=1.605e-06 $X=5595 $Y=1330 $D=1
M97 132 116 gnd! gnd! NMOS_VTL L=5e-08 W=2e-07 AD=8.16875e-14 AS=8.65375e-14 PD=1.235e-06 PS=1.605e-06 $X=5595 $Y=4820 $D=1
M98 133 117 gnd! gnd! NMOS_VTL L=5e-08 W=2e-07 AD=8.16875e-14 AS=8.65375e-14 PD=1.235e-06 PS=1.605e-06 $X=5595 $Y=8310 $D=1
M99 134 118 gnd! gnd! NMOS_VTL L=5e-08 W=2e-07 AD=8.16875e-14 AS=8.65375e-14 PD=1.235e-06 PS=1.605e-06 $X=5595 $Y=11800 $D=1
M100 135 119 gnd! gnd! NMOS_VTL L=5e-08 W=2e-07 AD=8.16875e-14 AS=8.65375e-14 PD=1.235e-06 PS=1.605e-06 $X=5595 $Y=15290 $D=1
M101 136 120 gnd! gnd! NMOS_VTL L=5e-08 W=2e-07 AD=8.16875e-14 AS=8.65375e-14 PD=1.235e-06 PS=1.605e-06 $X=5595 $Y=18780 $D=1
M102 137 121 gnd! gnd! NMOS_VTL L=5e-08 W=2e-07 AD=8.16875e-14 AS=8.65375e-14 PD=1.235e-06 PS=1.605e-06 $X=5595 $Y=22270 $D=1
M103 138 122 gnd! gnd! NMOS_VTL L=5e-08 W=2e-07 AD=8.16875e-14 AS=8.65375e-14 PD=1.235e-06 PS=1.605e-06 $X=5595 $Y=25760 $D=1
M104 139 123 gnd! gnd! NMOS_VTL L=5e-08 W=2e-07 AD=8.16875e-14 AS=8.65375e-14 PD=1.235e-06 PS=1.605e-06 $X=5595 $Y=29250 $D=1
M105 140 124 gnd! gnd! NMOS_VTL L=5e-08 W=2e-07 AD=8.16875e-14 AS=8.65375e-14 PD=1.235e-06 PS=1.605e-06 $X=5595 $Y=32740 $D=1
M106 141 125 gnd! gnd! NMOS_VTL L=5e-08 W=2e-07 AD=8.16875e-14 AS=8.65375e-14 PD=1.235e-06 PS=1.605e-06 $X=5595 $Y=36230 $D=1
M107 142 126 gnd! gnd! NMOS_VTL L=5e-08 W=2e-07 AD=8.16875e-14 AS=8.65375e-14 PD=1.235e-06 PS=1.605e-06 $X=5595 $Y=39720 $D=1
M108 143 127 gnd! gnd! NMOS_VTL L=5e-08 W=2e-07 AD=8.16875e-14 AS=8.65375e-14 PD=1.235e-06 PS=1.605e-06 $X=5595 $Y=43210 $D=1
M109 144 128 gnd! gnd! NMOS_VTL L=5e-08 W=2e-07 AD=8.16875e-14 AS=8.65375e-14 PD=1.235e-06 PS=1.605e-06 $X=5595 $Y=46700 $D=1
M110 145 129 gnd! gnd! NMOS_VTL L=5e-08 W=2e-07 AD=8.16875e-14 AS=8.65375e-14 PD=1.235e-06 PS=1.605e-06 $X=5595 $Y=50190 $D=1
M111 146 130 gnd! gnd! NMOS_VTL L=5e-08 W=2e-07 AD=8.16875e-14 AS=8.65375e-14 PD=1.235e-06 PS=1.605e-06 $X=5595 $Y=53680 $D=1
M112 131 WL15 BL1 gnd! NMOS_VTL L=5e-08 W=1.75e-07 AD=8.16875e-14 AS=4.1125e-14 PD=1.235e-06 PS=8.2e-07 $X=6035 $Y=1085 $D=1
M113 132 WL14 BL1 gnd! NMOS_VTL L=5e-08 W=1.75e-07 AD=8.16875e-14 AS=4.1125e-14 PD=1.235e-06 PS=8.2e-07 $X=6035 $Y=4575 $D=1
M114 133 WL13 BL1 gnd! NMOS_VTL L=5e-08 W=1.75e-07 AD=8.16875e-14 AS=4.1125e-14 PD=1.235e-06 PS=8.2e-07 $X=6035 $Y=8065 $D=1
M115 134 WL12 BL1 gnd! NMOS_VTL L=5e-08 W=1.75e-07 AD=8.16875e-14 AS=4.1125e-14 PD=1.235e-06 PS=8.2e-07 $X=6035 $Y=11555 $D=1
M116 135 WL11 BL1 gnd! NMOS_VTL L=5e-08 W=1.75e-07 AD=8.16875e-14 AS=4.1125e-14 PD=1.235e-06 PS=8.2e-07 $X=6035 $Y=15045 $D=1
M117 136 WL10 BL1 gnd! NMOS_VTL L=5e-08 W=1.75e-07 AD=8.16875e-14 AS=4.1125e-14 PD=1.235e-06 PS=8.2e-07 $X=6035 $Y=18535 $D=1
M118 137 WL9 BL1 gnd! NMOS_VTL L=5e-08 W=1.75e-07 AD=8.16875e-14 AS=4.1125e-14 PD=1.235e-06 PS=8.2e-07 $X=6035 $Y=22025 $D=1
M119 138 WL8 BL1 gnd! NMOS_VTL L=5e-08 W=1.75e-07 AD=8.16875e-14 AS=4.1125e-14 PD=1.235e-06 PS=8.2e-07 $X=6035 $Y=25515 $D=1
M120 139 WL7 BL1 gnd! NMOS_VTL L=5e-08 W=1.75e-07 AD=8.16875e-14 AS=4.1125e-14 PD=1.235e-06 PS=8.2e-07 $X=6035 $Y=29005 $D=1
M121 140 WL6 BL1 gnd! NMOS_VTL L=5e-08 W=1.75e-07 AD=8.16875e-14 AS=4.1125e-14 PD=1.235e-06 PS=8.2e-07 $X=6035 $Y=32495 $D=1
M122 141 WL5 BL1 gnd! NMOS_VTL L=5e-08 W=1.75e-07 AD=8.16875e-14 AS=4.1125e-14 PD=1.235e-06 PS=8.2e-07 $X=6035 $Y=35985 $D=1
M123 142 WL4 BL1 gnd! NMOS_VTL L=5e-08 W=1.75e-07 AD=8.16875e-14 AS=4.1125e-14 PD=1.235e-06 PS=8.2e-07 $X=6035 $Y=39475 $D=1
M124 143 WL3 BL1 gnd! NMOS_VTL L=5e-08 W=1.75e-07 AD=8.16875e-14 AS=4.1125e-14 PD=1.235e-06 PS=8.2e-07 $X=6035 $Y=42965 $D=1
M125 144 WL2 BL1 gnd! NMOS_VTL L=5e-08 W=1.75e-07 AD=8.16875e-14 AS=4.1125e-14 PD=1.235e-06 PS=8.2e-07 $X=6035 $Y=46455 $D=1
M126 145 WL1 BL1 gnd! NMOS_VTL L=5e-08 W=1.75e-07 AD=8.16875e-14 AS=4.1125e-14 PD=1.235e-06 PS=8.2e-07 $X=6035 $Y=49945 $D=1
M127 146 WL0 BL1 gnd! NMOS_VTL L=5e-08 W=1.75e-07 AD=8.16875e-14 AS=4.1125e-14 PD=1.235e-06 PS=8.2e-07 $X=6035 $Y=53435 $D=1
M128 147 WL15 !BL2 gnd! NMOS_VTL L=5e-08 W=1.75e-07 AD=8.51875e-14 AS=4.1125e-14 PD=1.27e-06 PS=8.2e-07 $X=7385 $Y=1085 $D=1
M129 148 WL14 !BL2 gnd! NMOS_VTL L=5e-08 W=1.75e-07 AD=8.51875e-14 AS=4.1125e-14 PD=1.27e-06 PS=8.2e-07 $X=7385 $Y=4575 $D=1
M130 149 WL13 !BL2 gnd! NMOS_VTL L=5e-08 W=1.75e-07 AD=8.51875e-14 AS=4.1125e-14 PD=1.27e-06 PS=8.2e-07 $X=7385 $Y=8065 $D=1
M131 150 WL12 !BL2 gnd! NMOS_VTL L=5e-08 W=1.75e-07 AD=8.51875e-14 AS=4.1125e-14 PD=1.27e-06 PS=8.2e-07 $X=7385 $Y=11555 $D=1
M132 151 WL11 !BL2 gnd! NMOS_VTL L=5e-08 W=1.75e-07 AD=8.51875e-14 AS=4.1125e-14 PD=1.27e-06 PS=8.2e-07 $X=7385 $Y=15045 $D=1
M133 152 WL10 !BL2 gnd! NMOS_VTL L=5e-08 W=1.75e-07 AD=8.51875e-14 AS=4.1125e-14 PD=1.27e-06 PS=8.2e-07 $X=7385 $Y=18535 $D=1
M134 153 WL9 !BL2 gnd! NMOS_VTL L=5e-08 W=1.75e-07 AD=8.51875e-14 AS=4.1125e-14 PD=1.27e-06 PS=8.2e-07 $X=7385 $Y=22025 $D=1
M135 154 WL8 !BL2 gnd! NMOS_VTL L=5e-08 W=1.75e-07 AD=8.51875e-14 AS=4.1125e-14 PD=1.27e-06 PS=8.2e-07 $X=7385 $Y=25515 $D=1
M136 155 WL7 !BL2 gnd! NMOS_VTL L=5e-08 W=1.75e-07 AD=8.51875e-14 AS=4.1125e-14 PD=1.27e-06 PS=8.2e-07 $X=7385 $Y=29005 $D=1
M137 156 WL6 !BL2 gnd! NMOS_VTL L=5e-08 W=1.75e-07 AD=8.51875e-14 AS=4.1125e-14 PD=1.27e-06 PS=8.2e-07 $X=7385 $Y=32495 $D=1
M138 157 WL5 !BL2 gnd! NMOS_VTL L=5e-08 W=1.75e-07 AD=8.51875e-14 AS=4.1125e-14 PD=1.27e-06 PS=8.2e-07 $X=7385 $Y=35985 $D=1
M139 158 WL4 !BL2 gnd! NMOS_VTL L=5e-08 W=1.75e-07 AD=8.51875e-14 AS=4.1125e-14 PD=1.27e-06 PS=8.2e-07 $X=7385 $Y=39475 $D=1
M140 159 WL3 !BL2 gnd! NMOS_VTL L=5e-08 W=1.75e-07 AD=8.51875e-14 AS=4.1125e-14 PD=1.27e-06 PS=8.2e-07 $X=7385 $Y=42965 $D=1
M141 160 WL2 !BL2 gnd! NMOS_VTL L=5e-08 W=1.75e-07 AD=8.51875e-14 AS=4.1125e-14 PD=1.27e-06 PS=8.2e-07 $X=7385 $Y=46455 $D=1
M142 161 WL1 !BL2 gnd! NMOS_VTL L=5e-08 W=1.75e-07 AD=8.51875e-14 AS=4.1125e-14 PD=1.27e-06 PS=8.2e-07 $X=7385 $Y=49945 $D=1
M143 162 WL0 !BL2 gnd! NMOS_VTL L=5e-08 W=1.75e-07 AD=8.51875e-14 AS=4.1125e-14 PD=1.27e-06 PS=8.2e-07 $X=7385 $Y=53435 $D=1
M144 gnd! 163 147 gnd! NMOS_VTL L=5e-08 W=2e-07 AD=8.65375e-14 AS=8.51875e-14 PD=1.605e-06 PS=1.27e-06 $X=8110 $Y=1330 $D=1
M145 gnd! 164 148 gnd! NMOS_VTL L=5e-08 W=2e-07 AD=8.65375e-14 AS=8.51875e-14 PD=1.605e-06 PS=1.27e-06 $X=8110 $Y=4820 $D=1
M146 gnd! 165 149 gnd! NMOS_VTL L=5e-08 W=2e-07 AD=8.65375e-14 AS=8.51875e-14 PD=1.605e-06 PS=1.27e-06 $X=8110 $Y=8310 $D=1
M147 gnd! 166 150 gnd! NMOS_VTL L=5e-08 W=2e-07 AD=8.65375e-14 AS=8.51875e-14 PD=1.605e-06 PS=1.27e-06 $X=8110 $Y=11800 $D=1
M148 gnd! 167 151 gnd! NMOS_VTL L=5e-08 W=2e-07 AD=8.65375e-14 AS=8.51875e-14 PD=1.605e-06 PS=1.27e-06 $X=8110 $Y=15290 $D=1
M149 gnd! 168 152 gnd! NMOS_VTL L=5e-08 W=2e-07 AD=8.65375e-14 AS=8.51875e-14 PD=1.605e-06 PS=1.27e-06 $X=8110 $Y=18780 $D=1
M150 gnd! 169 153 gnd! NMOS_VTL L=5e-08 W=2e-07 AD=8.65375e-14 AS=8.51875e-14 PD=1.605e-06 PS=1.27e-06 $X=8110 $Y=22270 $D=1
M151 gnd! 170 154 gnd! NMOS_VTL L=5e-08 W=2e-07 AD=8.65375e-14 AS=8.51875e-14 PD=1.605e-06 PS=1.27e-06 $X=8110 $Y=25760 $D=1
M152 gnd! 171 155 gnd! NMOS_VTL L=5e-08 W=2e-07 AD=8.65375e-14 AS=8.51875e-14 PD=1.605e-06 PS=1.27e-06 $X=8110 $Y=29250 $D=1
M153 gnd! 172 156 gnd! NMOS_VTL L=5e-08 W=2e-07 AD=8.65375e-14 AS=8.51875e-14 PD=1.605e-06 PS=1.27e-06 $X=8110 $Y=32740 $D=1
M154 gnd! 173 157 gnd! NMOS_VTL L=5e-08 W=2e-07 AD=8.65375e-14 AS=8.51875e-14 PD=1.605e-06 PS=1.27e-06 $X=8110 $Y=36230 $D=1
M155 gnd! 174 158 gnd! NMOS_VTL L=5e-08 W=2e-07 AD=8.65375e-14 AS=8.51875e-14 PD=1.605e-06 PS=1.27e-06 $X=8110 $Y=39720 $D=1
M156 gnd! 175 159 gnd! NMOS_VTL L=5e-08 W=2e-07 AD=8.65375e-14 AS=8.51875e-14 PD=1.605e-06 PS=1.27e-06 $X=8110 $Y=43210 $D=1
M157 gnd! 176 160 gnd! NMOS_VTL L=5e-08 W=2e-07 AD=8.65375e-14 AS=8.51875e-14 PD=1.605e-06 PS=1.27e-06 $X=8110 $Y=46700 $D=1
M158 gnd! 177 161 gnd! NMOS_VTL L=5e-08 W=2e-07 AD=8.65375e-14 AS=8.51875e-14 PD=1.605e-06 PS=1.27e-06 $X=8110 $Y=50190 $D=1
M159 gnd! 178 162 gnd! NMOS_VTL L=5e-08 W=2e-07 AD=8.65375e-14 AS=8.51875e-14 PD=1.605e-06 PS=1.27e-06 $X=8110 $Y=53680 $D=1
M160 163 147 gnd! gnd! NMOS_VTL L=5e-08 W=2e-07 AD=8.16875e-14 AS=8.65375e-14 PD=1.235e-06 PS=1.605e-06 $X=8700 $Y=1330 $D=1
M161 164 148 gnd! gnd! NMOS_VTL L=5e-08 W=2e-07 AD=8.16875e-14 AS=8.65375e-14 PD=1.235e-06 PS=1.605e-06 $X=8700 $Y=4820 $D=1
M162 165 149 gnd! gnd! NMOS_VTL L=5e-08 W=2e-07 AD=8.16875e-14 AS=8.65375e-14 PD=1.235e-06 PS=1.605e-06 $X=8700 $Y=8310 $D=1
M163 166 150 gnd! gnd! NMOS_VTL L=5e-08 W=2e-07 AD=8.16875e-14 AS=8.65375e-14 PD=1.235e-06 PS=1.605e-06 $X=8700 $Y=11800 $D=1
M164 167 151 gnd! gnd! NMOS_VTL L=5e-08 W=2e-07 AD=8.16875e-14 AS=8.65375e-14 PD=1.235e-06 PS=1.605e-06 $X=8700 $Y=15290 $D=1
M165 168 152 gnd! gnd! NMOS_VTL L=5e-08 W=2e-07 AD=8.16875e-14 AS=8.65375e-14 PD=1.235e-06 PS=1.605e-06 $X=8700 $Y=18780 $D=1
M166 169 153 gnd! gnd! NMOS_VTL L=5e-08 W=2e-07 AD=8.16875e-14 AS=8.65375e-14 PD=1.235e-06 PS=1.605e-06 $X=8700 $Y=22270 $D=1
M167 170 154 gnd! gnd! NMOS_VTL L=5e-08 W=2e-07 AD=8.16875e-14 AS=8.65375e-14 PD=1.235e-06 PS=1.605e-06 $X=8700 $Y=25760 $D=1
M168 171 155 gnd! gnd! NMOS_VTL L=5e-08 W=2e-07 AD=8.16875e-14 AS=8.65375e-14 PD=1.235e-06 PS=1.605e-06 $X=8700 $Y=29250 $D=1
M169 172 156 gnd! gnd! NMOS_VTL L=5e-08 W=2e-07 AD=8.16875e-14 AS=8.65375e-14 PD=1.235e-06 PS=1.605e-06 $X=8700 $Y=32740 $D=1
M170 173 157 gnd! gnd! NMOS_VTL L=5e-08 W=2e-07 AD=8.16875e-14 AS=8.65375e-14 PD=1.235e-06 PS=1.605e-06 $X=8700 $Y=36230 $D=1
M171 174 158 gnd! gnd! NMOS_VTL L=5e-08 W=2e-07 AD=8.16875e-14 AS=8.65375e-14 PD=1.235e-06 PS=1.605e-06 $X=8700 $Y=39720 $D=1
M172 175 159 gnd! gnd! NMOS_VTL L=5e-08 W=2e-07 AD=8.16875e-14 AS=8.65375e-14 PD=1.235e-06 PS=1.605e-06 $X=8700 $Y=43210 $D=1
M173 176 160 gnd! gnd! NMOS_VTL L=5e-08 W=2e-07 AD=8.16875e-14 AS=8.65375e-14 PD=1.235e-06 PS=1.605e-06 $X=8700 $Y=46700 $D=1
M174 177 161 gnd! gnd! NMOS_VTL L=5e-08 W=2e-07 AD=8.16875e-14 AS=8.65375e-14 PD=1.235e-06 PS=1.605e-06 $X=8700 $Y=50190 $D=1
M175 178 162 gnd! gnd! NMOS_VTL L=5e-08 W=2e-07 AD=8.16875e-14 AS=8.65375e-14 PD=1.235e-06 PS=1.605e-06 $X=8700 $Y=53680 $D=1
M176 163 WL15 BL2 gnd! NMOS_VTL L=5e-08 W=1.75e-07 AD=8.16875e-14 AS=4.1125e-14 PD=1.235e-06 PS=8.2e-07 $X=9140 $Y=1085 $D=1
M177 164 WL14 BL2 gnd! NMOS_VTL L=5e-08 W=1.75e-07 AD=8.16875e-14 AS=4.1125e-14 PD=1.235e-06 PS=8.2e-07 $X=9140 $Y=4575 $D=1
M178 165 WL13 BL2 gnd! NMOS_VTL L=5e-08 W=1.75e-07 AD=8.16875e-14 AS=4.1125e-14 PD=1.235e-06 PS=8.2e-07 $X=9140 $Y=8065 $D=1
M179 166 WL12 BL2 gnd! NMOS_VTL L=5e-08 W=1.75e-07 AD=8.16875e-14 AS=4.1125e-14 PD=1.235e-06 PS=8.2e-07 $X=9140 $Y=11555 $D=1
M180 167 WL11 BL2 gnd! NMOS_VTL L=5e-08 W=1.75e-07 AD=8.16875e-14 AS=4.1125e-14 PD=1.235e-06 PS=8.2e-07 $X=9140 $Y=15045 $D=1
M181 168 WL10 BL2 gnd! NMOS_VTL L=5e-08 W=1.75e-07 AD=8.16875e-14 AS=4.1125e-14 PD=1.235e-06 PS=8.2e-07 $X=9140 $Y=18535 $D=1
M182 169 WL9 BL2 gnd! NMOS_VTL L=5e-08 W=1.75e-07 AD=8.16875e-14 AS=4.1125e-14 PD=1.235e-06 PS=8.2e-07 $X=9140 $Y=22025 $D=1
M183 170 WL8 BL2 gnd! NMOS_VTL L=5e-08 W=1.75e-07 AD=8.16875e-14 AS=4.1125e-14 PD=1.235e-06 PS=8.2e-07 $X=9140 $Y=25515 $D=1
M184 171 WL7 BL2 gnd! NMOS_VTL L=5e-08 W=1.75e-07 AD=8.16875e-14 AS=4.1125e-14 PD=1.235e-06 PS=8.2e-07 $X=9140 $Y=29005 $D=1
M185 172 WL6 BL2 gnd! NMOS_VTL L=5e-08 W=1.75e-07 AD=8.16875e-14 AS=4.1125e-14 PD=1.235e-06 PS=8.2e-07 $X=9140 $Y=32495 $D=1
M186 173 WL5 BL2 gnd! NMOS_VTL L=5e-08 W=1.75e-07 AD=8.16875e-14 AS=4.1125e-14 PD=1.235e-06 PS=8.2e-07 $X=9140 $Y=35985 $D=1
M187 174 WL4 BL2 gnd! NMOS_VTL L=5e-08 W=1.75e-07 AD=8.16875e-14 AS=4.1125e-14 PD=1.235e-06 PS=8.2e-07 $X=9140 $Y=39475 $D=1
M188 175 WL3 BL2 gnd! NMOS_VTL L=5e-08 W=1.75e-07 AD=8.16875e-14 AS=4.1125e-14 PD=1.235e-06 PS=8.2e-07 $X=9140 $Y=42965 $D=1
M189 176 WL2 BL2 gnd! NMOS_VTL L=5e-08 W=1.75e-07 AD=8.16875e-14 AS=4.1125e-14 PD=1.235e-06 PS=8.2e-07 $X=9140 $Y=46455 $D=1
M190 177 WL1 BL2 gnd! NMOS_VTL L=5e-08 W=1.75e-07 AD=8.16875e-14 AS=4.1125e-14 PD=1.235e-06 PS=8.2e-07 $X=9140 $Y=49945 $D=1
M191 178 WL0 BL2 gnd! NMOS_VTL L=5e-08 W=1.75e-07 AD=8.16875e-14 AS=4.1125e-14 PD=1.235e-06 PS=8.2e-07 $X=9140 $Y=53435 $D=1
M192 179 WL15 !BL3 gnd! NMOS_VTL L=5e-08 W=1.75e-07 AD=8.51875e-14 AS=4.1125e-14 PD=1.27e-06 PS=8.2e-07 $X=10490 $Y=1085 $D=1
M193 180 WL14 !BL3 gnd! NMOS_VTL L=5e-08 W=1.75e-07 AD=8.51875e-14 AS=4.1125e-14 PD=1.27e-06 PS=8.2e-07 $X=10490 $Y=4575 $D=1
M194 181 WL13 !BL3 gnd! NMOS_VTL L=5e-08 W=1.75e-07 AD=8.51875e-14 AS=4.1125e-14 PD=1.27e-06 PS=8.2e-07 $X=10490 $Y=8065 $D=1
M195 182 WL12 !BL3 gnd! NMOS_VTL L=5e-08 W=1.75e-07 AD=8.51875e-14 AS=4.1125e-14 PD=1.27e-06 PS=8.2e-07 $X=10490 $Y=11555 $D=1
M196 183 WL11 !BL3 gnd! NMOS_VTL L=5e-08 W=1.75e-07 AD=8.51875e-14 AS=4.1125e-14 PD=1.27e-06 PS=8.2e-07 $X=10490 $Y=15045 $D=1
M197 184 WL10 !BL3 gnd! NMOS_VTL L=5e-08 W=1.75e-07 AD=8.51875e-14 AS=4.1125e-14 PD=1.27e-06 PS=8.2e-07 $X=10490 $Y=18535 $D=1
M198 185 WL9 !BL3 gnd! NMOS_VTL L=5e-08 W=1.75e-07 AD=8.51875e-14 AS=4.1125e-14 PD=1.27e-06 PS=8.2e-07 $X=10490 $Y=22025 $D=1
M199 186 WL8 !BL3 gnd! NMOS_VTL L=5e-08 W=1.75e-07 AD=8.51875e-14 AS=4.1125e-14 PD=1.27e-06 PS=8.2e-07 $X=10490 $Y=25515 $D=1
M200 187 WL7 !BL3 gnd! NMOS_VTL L=5e-08 W=1.75e-07 AD=8.51875e-14 AS=4.1125e-14 PD=1.27e-06 PS=8.2e-07 $X=10490 $Y=29005 $D=1
M201 188 WL6 !BL3 gnd! NMOS_VTL L=5e-08 W=1.75e-07 AD=8.51875e-14 AS=4.1125e-14 PD=1.27e-06 PS=8.2e-07 $X=10490 $Y=32495 $D=1
M202 189 WL5 !BL3 gnd! NMOS_VTL L=5e-08 W=1.75e-07 AD=8.51875e-14 AS=4.1125e-14 PD=1.27e-06 PS=8.2e-07 $X=10490 $Y=35985 $D=1
M203 190 WL4 !BL3 gnd! NMOS_VTL L=5e-08 W=1.75e-07 AD=8.51875e-14 AS=4.1125e-14 PD=1.27e-06 PS=8.2e-07 $X=10490 $Y=39475 $D=1
M204 191 WL3 !BL3 gnd! NMOS_VTL L=5e-08 W=1.75e-07 AD=8.51875e-14 AS=4.1125e-14 PD=1.27e-06 PS=8.2e-07 $X=10490 $Y=42965 $D=1
M205 192 WL2 !BL3 gnd! NMOS_VTL L=5e-08 W=1.75e-07 AD=8.51875e-14 AS=4.1125e-14 PD=1.27e-06 PS=8.2e-07 $X=10490 $Y=46455 $D=1
M206 193 WL1 !BL3 gnd! NMOS_VTL L=5e-08 W=1.75e-07 AD=8.51875e-14 AS=4.1125e-14 PD=1.27e-06 PS=8.2e-07 $X=10490 $Y=49945 $D=1
M207 194 WL0 !BL3 gnd! NMOS_VTL L=5e-08 W=1.75e-07 AD=8.51875e-14 AS=4.1125e-14 PD=1.27e-06 PS=8.2e-07 $X=10490 $Y=53435 $D=1
M208 gnd! 195 179 gnd! NMOS_VTL L=5e-08 W=2e-07 AD=8.65375e-14 AS=8.51875e-14 PD=1.605e-06 PS=1.27e-06 $X=11215 $Y=1330 $D=1
M209 gnd! 196 180 gnd! NMOS_VTL L=5e-08 W=2e-07 AD=8.65375e-14 AS=8.51875e-14 PD=1.605e-06 PS=1.27e-06 $X=11215 $Y=4820 $D=1
M210 gnd! 197 181 gnd! NMOS_VTL L=5e-08 W=2e-07 AD=8.65375e-14 AS=8.51875e-14 PD=1.605e-06 PS=1.27e-06 $X=11215 $Y=8310 $D=1
M211 gnd! 198 182 gnd! NMOS_VTL L=5e-08 W=2e-07 AD=8.65375e-14 AS=8.51875e-14 PD=1.605e-06 PS=1.27e-06 $X=11215 $Y=11800 $D=1
M212 gnd! 199 183 gnd! NMOS_VTL L=5e-08 W=2e-07 AD=8.65375e-14 AS=8.51875e-14 PD=1.605e-06 PS=1.27e-06 $X=11215 $Y=15290 $D=1
M213 gnd! 200 184 gnd! NMOS_VTL L=5e-08 W=2e-07 AD=8.65375e-14 AS=8.51875e-14 PD=1.605e-06 PS=1.27e-06 $X=11215 $Y=18780 $D=1
M214 gnd! 201 185 gnd! NMOS_VTL L=5e-08 W=2e-07 AD=8.65375e-14 AS=8.51875e-14 PD=1.605e-06 PS=1.27e-06 $X=11215 $Y=22270 $D=1
M215 gnd! 202 186 gnd! NMOS_VTL L=5e-08 W=2e-07 AD=8.65375e-14 AS=8.51875e-14 PD=1.605e-06 PS=1.27e-06 $X=11215 $Y=25760 $D=1
M216 gnd! 203 187 gnd! NMOS_VTL L=5e-08 W=2e-07 AD=8.65375e-14 AS=8.51875e-14 PD=1.605e-06 PS=1.27e-06 $X=11215 $Y=29250 $D=1
M217 gnd! 204 188 gnd! NMOS_VTL L=5e-08 W=2e-07 AD=8.65375e-14 AS=8.51875e-14 PD=1.605e-06 PS=1.27e-06 $X=11215 $Y=32740 $D=1
M218 gnd! 205 189 gnd! NMOS_VTL L=5e-08 W=2e-07 AD=8.65375e-14 AS=8.51875e-14 PD=1.605e-06 PS=1.27e-06 $X=11215 $Y=36230 $D=1
M219 gnd! 206 190 gnd! NMOS_VTL L=5e-08 W=2e-07 AD=8.65375e-14 AS=8.51875e-14 PD=1.605e-06 PS=1.27e-06 $X=11215 $Y=39720 $D=1
M220 gnd! 207 191 gnd! NMOS_VTL L=5e-08 W=2e-07 AD=8.65375e-14 AS=8.51875e-14 PD=1.605e-06 PS=1.27e-06 $X=11215 $Y=43210 $D=1
M221 gnd! 208 192 gnd! NMOS_VTL L=5e-08 W=2e-07 AD=8.65375e-14 AS=8.51875e-14 PD=1.605e-06 PS=1.27e-06 $X=11215 $Y=46700 $D=1
M222 gnd! 209 193 gnd! NMOS_VTL L=5e-08 W=2e-07 AD=8.65375e-14 AS=8.51875e-14 PD=1.605e-06 PS=1.27e-06 $X=11215 $Y=50190 $D=1
M223 gnd! 210 194 gnd! NMOS_VTL L=5e-08 W=2e-07 AD=8.65375e-14 AS=8.51875e-14 PD=1.605e-06 PS=1.27e-06 $X=11215 $Y=53680 $D=1
M224 195 179 gnd! gnd! NMOS_VTL L=5e-08 W=2e-07 AD=8.16875e-14 AS=8.65375e-14 PD=1.235e-06 PS=1.605e-06 $X=11805 $Y=1330 $D=1
M225 196 180 gnd! gnd! NMOS_VTL L=5e-08 W=2e-07 AD=8.16875e-14 AS=8.65375e-14 PD=1.235e-06 PS=1.605e-06 $X=11805 $Y=4820 $D=1
M226 197 181 gnd! gnd! NMOS_VTL L=5e-08 W=2e-07 AD=8.16875e-14 AS=8.65375e-14 PD=1.235e-06 PS=1.605e-06 $X=11805 $Y=8310 $D=1
M227 198 182 gnd! gnd! NMOS_VTL L=5e-08 W=2e-07 AD=8.16875e-14 AS=8.65375e-14 PD=1.235e-06 PS=1.605e-06 $X=11805 $Y=11800 $D=1
M228 199 183 gnd! gnd! NMOS_VTL L=5e-08 W=2e-07 AD=8.16875e-14 AS=8.65375e-14 PD=1.235e-06 PS=1.605e-06 $X=11805 $Y=15290 $D=1
M229 200 184 gnd! gnd! NMOS_VTL L=5e-08 W=2e-07 AD=8.16875e-14 AS=8.65375e-14 PD=1.235e-06 PS=1.605e-06 $X=11805 $Y=18780 $D=1
M230 201 185 gnd! gnd! NMOS_VTL L=5e-08 W=2e-07 AD=8.16875e-14 AS=8.65375e-14 PD=1.235e-06 PS=1.605e-06 $X=11805 $Y=22270 $D=1
M231 202 186 gnd! gnd! NMOS_VTL L=5e-08 W=2e-07 AD=8.16875e-14 AS=8.65375e-14 PD=1.235e-06 PS=1.605e-06 $X=11805 $Y=25760 $D=1
M232 203 187 gnd! gnd! NMOS_VTL L=5e-08 W=2e-07 AD=8.16875e-14 AS=8.65375e-14 PD=1.235e-06 PS=1.605e-06 $X=11805 $Y=29250 $D=1
M233 204 188 gnd! gnd! NMOS_VTL L=5e-08 W=2e-07 AD=8.16875e-14 AS=8.65375e-14 PD=1.235e-06 PS=1.605e-06 $X=11805 $Y=32740 $D=1
M234 205 189 gnd! gnd! NMOS_VTL L=5e-08 W=2e-07 AD=8.16875e-14 AS=8.65375e-14 PD=1.235e-06 PS=1.605e-06 $X=11805 $Y=36230 $D=1
M235 206 190 gnd! gnd! NMOS_VTL L=5e-08 W=2e-07 AD=8.16875e-14 AS=8.65375e-14 PD=1.235e-06 PS=1.605e-06 $X=11805 $Y=39720 $D=1