* File: SRAMArray.pex.netlist.pex
* Created: Thu Nov 21 00:38:08 2024
* Program "Calibre xRC"
* Version "v2024.3_37.19"
* Nominal Temperature: 25C
* Circuit Temperature: 25C
* 
.subckt PM_SRAMARRAY_GND! 1 2 3 4 5 6 7 8 9 10 11 12 13 14 15 16 17 18 19 20 21
+ 22 23 24 25 26 27 28 29 30 31 32 33 34 35 36 37 38 39 40 41 42 43 44 45 46 47
+ 48 49 50 51 52 53 54 55 56 57 58 59 60 61 62 63 64 65 66 67 68 69 70 71 72 73
+ 74 75 76 77 78 79 80 81 82 83 84 85 86 87 88 89 90 91 92 93 94 95 96 97 98 99
+ 100 101 102 103 104 105 106 107 108 109 110 111 112 113 114 115 116 117 118
+ 119 120 121 122 123 124 125 126 127 128 129 130 131 132 133 134 135 136 137
+ 138 139 140 141 142 143 144 145 146 147 148 149 150 151 152 153 154 155 156
+ 157 158 159 160 161 162 163 164 165 166 167 168 169 170 171 172 173 174 175
+ 176 177 178 179 180 181 182 183 184 185 186 187 188 189 190 191 192 193 194
+ 195 196 197 198 199 200 201 202 203 204 205 206 207 208 209 210 211 212 213
+ 214 215 216 217 218 219 220 221 222 223 224 225 226 227 228 229 230 231 232
+ 233 234 235 236 237 238 239 240 241 242 243 244 245 246 247 248 249 250 251
+ 252 253 254 255 256 257 258 259 260 261 262 263 264 265 266 267 268 269 270
+ 271 272 273 274 275 276 277 278 279 280 281 282 283 284 285 286 287 288 289
+ 290 291 292 293 294 295 296 297 298 299 300 301 302 303 304 305 306 307 308
+ 309 310 311 312 313 314 315 316 317 318 319 320 321 322 323 324 325 326 327
+ 328 329 330 331 332 333 334 335 336 337 338 339 340 341 342 343 344 345 346
+ 347 348 349 350 351 352 353 354 355 356 357 358 359 360 361 362 363 364 365
+ 366 367 368 369 370 371 372 373 374 375 376 377 378 379 380 381 382 383 384
+ 385 386 387 388 389 390 391 392 393 394 395 396 397 398 399 400 401 402 403
+ 404 405 406 407 408 409 410 411 412 413 414 415 416 417 418 419 420 421 422
+ 423 424 425 426 427 428 429 430 431 432 433 434 435 436 437 438 439 440 441
+ 442 443 444 445 446 447 448 449 450 451 452 453 454 455 456 457 458 459 460
+ 461 462 463 464 465 466 467 468 469 470 471 472 473 474 475 476 477 478 479
+ 480 481 482 483 484 485 486 487 488 489 490 491 492 493 494 495 496 497 498
+ 499 500 501 502 503 504 505 506 507 508 509 510 511 512 1089 1090 1091 1092
+ 1093 1094 1095 1096 1097 1098 1099 1100 1101 1102 1103 1104 5858 5863 5868
+ 5873 5878 5883 5888 5893 5898 5903 5908 5913 5918 5923 5928 5933 5938 5943
+ 5948 5953 5958 5963 5968 5973 5978 5983 5988 5993 5998 6003 6008 6013 6018
+ 6023 6028 6033 6038 6043 6048 6053 6058 6063 6068 6073 6078 6083 6088 6093
+ 6098 6103 6108 6113 6118 6123 6128 6133 6138 6143 6148 6153 6158 6163 6168
+ 6173 6178 6183 6188 6193 6198 6203 6208 6213 6218 6223 6228 6233 6238 6243
+ 6248 6253 6258 6263 6268 6273 6278 6283 6288 6293 6298 6303 6308 6313 6318
+ 6323 6328 6333 6338 6343 6348 6353 6358 6363 6368 6373 6378 6383 6388 6393
+ 6398 6403 6408 6413 6418 6423 6428 6433 6438 6443 6448 6453 6458 6463 6468
+ 6473 6478 6483 6488 6493 6498 6503 6508 6513 6518 6523 6528 6533 6538 6543
+ 6548 6553 6558 6563 6568 6573 6578 6583 6588 6593 6598 6603 6608 6613 6618
+ 6623 6628 6633 6638 6643 6648 6653 6658 6663 6668 6673 6678 6683 6688 6693
+ 6698 6703 6708 6713 6718 6723 6728 6733 6738 6743 6748 6753 6758 6763 6768
+ 6773 6778 6783 6788 6793 6798 6803 6808 6813 6818 6823 6828 6833 6838 6843
+ 6848 6853 6858 6863 6868 6873 6878 6883 6888 6893 6898 6903 6908 6913 6918
+ 6923 6928 6933 6938 6943 6948 6953 6958 6963 6968 6973 6978 6983 6988 6993
+ 6998 7003 7008 7013 7018 7023 7028 7033 7038 7043 7048 7053 7058 7063 7068
+ 7073 7078 7083 7088 7093 7098 7103 7108 7113 7118 7123 7128 7133 7138 7143
+ 7148 7153 7158 7163 7168 7173 7178 7183 7188 7193 7198 7203 7208 7213 7218
+ 7223 7228 7233 7238 7243 7248 7253 7258 7263 7268 7273 7278 7283 7288 7293
+ 7298 7303 7308 7313 7318 7323 7328 7333 7338 7343 7348 7353 7358 7363 7368
+ 7373 7378 7383 7388 7393 7398 7403 7408 7413 7418 7423 7428 7433 7438 7443
+ 7448 7453 7458 7463 7468 7473 7478 7483 7488 7493 7498 7503 7508 7513 7518
+ 7523 7528 7533 7538 7543 7548 7553 7558 7563 7568 7573 7578 7583 7588 7593
+ 7598 7603 7608 7613 7618 7623 7628 7633 7638 7643 7648 7653 7658 7663 7668
+ 7673 7678 7683 7688 7693 7698 7703 7708 7713 7718 7723 7728 7733 7738 7743
+ 7748 7753 7758 7763 7768 7773 7778 7783 7788 7793 7798 7803 7808 7813 7818
+ 7823 7828 7833 7838 7843 7848 7853 7858 7863 7868 7873 7878 7883 7888 7893
+ 7898 7903 7908 7913 7918 7923 7928 7933 7938 7943 7948 7953 7958 7963 7968
+ 7973 7978 7983 7988 7993 7998 8003 8008 8013 8018 8023 8028 8033 8038 8043
+ 8048 8053 8058 8063 8068 8073 8078 8083 8088 8093 8098 8103 8108 8113 8118
+ 8123 8128 8133 8138 8143 8148 8153 8158 8163 8168 8173 8178 8183 8188 8193
+ 8198 8203 8208 8213 8218 8223 8228 8233 8238 8243 8248 8253 8258 8263 8268
+ 8273 8278 8283 8288 8293 8298 8303 8308 8313 8318 8323 8328 8333 8338 8343
+ 8348 8353 8358 8363 8368 8373 8378 8383 8388 8393 8398 8403 8408 8413 8418
+ 8423 8428 8433 8438 8443 8448 8453 8458 8463 8468 8473 8478 8483 8488 8493
+ 8497 8502 8504 8506 8508 8510 8512 8514 8516 8518 8520 8522 8524 8526 8528
+ 8531 8533 8535 8537 8539 8541 8543 8545 8547 8549 8551 8553 8555 8557 8559
+ 8560 8563 8567 8571 8575 8579 8583 8587 8591 8595 8599 8603 8607 8611 8615
+ 8619 8623 8689 8755 8821 8887 8953 9019 9085 9151 9217 9283 9349 9415 9481
+ 9547 9613 9679 9681 9682 9683 9684 9685 9686 9687 9688 9689 9690 9691 9692
+ 9693 9694 9696 9697 9698 9699 9700 9701 9702 9703 9704 9705 9706 9707 9708
+ 9709 9710
c8496 9710 0 0.00302199f
c8497 9709 0 0.00302199f
c8498 9708 0 0.00302199f
c8499 9707 0 0.00302199f
c8500 9706 0 0.00302199f
c8501 9705 0 0.00302199f
c8502 9704 0 0.00302199f
c8503 9703 0 0.0031113f
c8504 9702 0 0.00302199f
c8505 9701 0 0.00302199f
c8506 9700 0 0.00302199f
c8507 9699 0 0.00302199f
c8508 9698 0 0.00302199f
c8509 9697 0 0.00302199f
c8510 9696 0 0.00302199f
c8511 9695 0 0.00302199f
c8512 9694 0 0.00341422f
c8513 9693 0 0.00341422f
c8514 9692 0 0.00341422f
c8515 9691 0 0.00341422f
c8516 9690 0 0.00341422f
c8517 9689 0 0.00341422f
c8518 9688 0 0.00342542f
c8519 9687 0 0.00341422f
c8520 9686 0 0.00341422f
c8521 9685 0 0.00341422f
c8522 9684 0 0.00341422f
c8523 9683 0 0.00341422f
c8524 9682 0 0.00341422f
c8525 9681 0 0.00341422f
c8526 9679 0 1.70846f
c8527 9613 0 1.70846f
c8528 9547 0 1.70846f
c8529 9481 0 1.70846f
c8530 9415 0 1.70846f
c8531 9349 0 1.70846f
c8532 9283 0 1.70846f
c8533 9217 0 1.70858f
c8534 9151 0 1.70846f
c8535 9085 0 1.70846f
c8536 9019 0 1.70846f
c8537 8953 0 1.70846f
c8538 8887 0 1.70846f
c8539 8821 0 1.70846f
c8540 8755 0 1.70846f
c8541 8689 0 1.70846f
c8542 8623 0 0.0162122f
c8543 8619 0 0.0119557f
c8544 8615 0 0.0119557f
c8545 8611 0 0.0119557f
c8546 8607 0 0.0119557f
c8547 8603 0 0.0119557f
c8548 8599 0 0.0119557f
c8549 8595 0 0.0119557f
c8550 8591 0 0.0119557f
c8551 8587 0 0.0119557f
c8552 8583 0 0.0119557f
c8553 8579 0 0.0119557f
c8554 8575 0 0.0119557f
c8555 8571 0 0.0119557f
c8556 8567 0 0.0119557f
c8557 8563 0 0.0119557f
c8558 8560 0 0.00531723f
c8559 8559 0 0.00585199f
c8560 8557 0 0.00369028f
c8561 8555 0 0.00369028f
c8562 8553 0 0.00369028f
c8563 8551 0 0.00369028f
c8564 8549 0 0.00369028f
c8565 8547 0 0.00369028f
c8566 8545 0 0.00370029f
c8567 8543 0 0.00369028f
c8568 8541 0 0.00369028f
c8569 8539 0 0.00369028f
c8570 8537 0 0.00369028f
c8571 8535 0 0.00369028f
c8572 8533 0 0.00369028f
c8573 8531 0 0.00369028f
c8574 8530 0 0.0069413f
c8575 8529 0 0.00487123f
c8576 8528 0 0.0337414f
c8577 8526 0 0.0337414f
c8578 8524 0 0.0337414f
c8579 8522 0 0.0337414f
c8580 8520 0 0.0337414f
c8581 8518 0 0.0337414f
c8582 8516 0 0.0337414f
c8583 8514 0 0.0337414f
c8584 8512 0 0.0337414f
c8585 8510 0 0.0337414f
c8586 8508 0 0.0337414f
c8587 8506 0 0.0337414f
c8588 8504 0 0.0337414f
c8589 8502 0 0.0337414f
c8590 8497 0 0.0535655f
c8591 8493 0 0.00452577f
c8592 8488 0 0.00452577f
c8593 8483 0 0.00452577f
c8594 8478 0 0.00452577f
c8595 8473 0 0.00452577f
c8596 8468 0 0.00452577f
c8597 8463 0 0.00452577f
c8598 8458 0 0.0045322f
c8599 8453 0 0.00452577f
c8600 8448 0 0.00452577f
c8601 8443 0 0.00452577f
c8602 8438 0 0.00452577f
c8603 8433 0 0.00452577f
c8604 8428 0 0.00452577f
c8605 8423 0 0.00452577f
c8606 8418 0 0.00452577f
c8607 8413 0 0.00452577f
c8608 8408 0 0.00452577f
c8609 8403 0 0.00452577f
c8610 8398 0 0.00452577f
c8611 8393 0 0.00452577f
c8612 8388 0 0.00452577f
c8613 8383 0 0.00452577f
c8614 8378 0 0.0045322f
c8615 8373 0 0.00452577f
c8616 8368 0 0.00452577f
c8617 8363 0 0.00452577f
c8618 8358 0 0.00452577f
c8619 8353 0 0.00452577f
c8620 8348 0 0.00452577f
c8621 8343 0 0.00452577f
c8622 8338 0 0.00452577f
c8623 8333 0 0.00452577f
c8624 8328 0 0.00452577f
c8625 8323 0 0.00452577f
c8626 8318 0 0.00452577f
c8627 8313 0 0.00452577f
c8628 8308 0 0.00452577f
c8629 8303 0 0.00452577f
c8630 8298 0 0.0045322f
c8631 8293 0 0.00452577f
c8632 8288 0 0.00452577f
c8633 8283 0 0.00452577f
c8634 8278 0 0.00452577f
c8635 8273 0 0.00452577f
c8636 8268 0 0.00452577f
c8637 8263 0 0.00452577f
c8638 8258 0 0.00452577f
c8639 8253 0 0.00452577f
c8640 8248 0 0.00452577f
c8641 8243 0 0.00452577f
c8642 8238 0 0.00452577f
c8643 8233 0 0.00452577f
c8644 8228 0 0.00452577f
c8645 8223 0 0.00452577f
c8646 8218 0 0.0045322f
c8647 8213 0 0.00452577f
c8648 8208 0 0.00452577f
c8649 8203 0 0.00452577f
c8650 8198 0 0.00452577f
c8651 8193 0 0.00452577f
c8652 8188 0 0.00452577f
c8653 8183 0 0.00452577f
c8654 8178 0 0.00452577f
c8655 8173 0 0.00452577f
c8656 8168 0 0.00452577f
c8657 8163 0 0.00452577f
c8658 8158 0 0.00452577f
c8659 8153 0 0.00452577f
c8660 8148 0 0.00452577f
c8661 8143 0 0.00452577f
c8662 8138 0 0.0045322f
c8663 8133 0 0.00452577f
c8664 8128 0 0.00452577f
c8665 8123 0 0.00452577f
c8666 8118 0 0.00452577f
c8667 8113 0 0.00452577f
c8668 8108 0 0.00452577f
c8669 8103 0 0.00452577f
c8670 8098 0 0.00452577f
c8671 8093 0 0.00452577f
c8672 8088 0 0.00452577f
c8673 8083 0 0.00452577f
c8674 8078 0 0.00452577f
c8675 8073 0 0.00452577f
c8676 8068 0 0.00452577f
c8677 8063 0 0.00452577f
c8678 8058 0 0.0045322f
c8679 8053 0 0.00452577f
c8680 8048 0 0.00452577f
c8681 8043 0 0.00452577f
c8682 8038 0 0.00452577f
c8683 8033 0 0.00452577f
c8684 8028 0 0.00452577f
c8685 8023 0 0.00452577f
c8686 8018 0 0.00452577f
c8687 8013 0 0.00452577f
c8688 8008 0 0.00452577f
c8689 8003 0 0.00452577f
c8690 7998 0 0.00452577f
c8691 7993 0 0.00452577f
c8692 7988 0 0.00452577f
c8693 7983 0 0.00452577f
c8694 7978 0 0.0045322f
c8695 7973 0 0.00452577f
c8696 7968 0 0.00452577f
c8697 7963 0 0.00452577f
c8698 7958 0 0.00452577f
c8699 7953 0 0.00452577f
c8700 7948 0 0.00452577f
c8701 7943 0 0.00452577f
c8702 7938 0 0.00452577f
c8703 7933 0 0.00452577f
c8704 7928 0 0.00452577f
c8705 7923 0 0.00452577f
c8706 7918 0 0.00452577f
c8707 7913 0 0.00452577f
c8708 7908 0 0.00452577f
c8709 7903 0 0.00452577f
c8710 7898 0 0.0045322f
c8711 7893 0 0.00452577f
c8712 7888 0 0.00452577f
c8713 7883 0 0.00452577f
c8714 7878 0 0.00452577f
c8715 7873 0 0.00452577f
c8716 7868 0 0.00452577f
c8717 7863 0 0.00452577f
c8718 7858 0 0.00452577f
c8719 7853 0 0.00452577f
c8720 7848 0 0.00452577f
c8721 7843 0 0.00452577f
c8722 7838 0 0.00452577f
c8723 7833 0 0.00452577f
c8724 7828 0 0.00452577f
c8725 7823 0 0.00452577f
c8726 7818 0 0.0045322f
c8727 7813 0 0.00452577f
c8728 7808 0 0.00452577f
c8729 7803 0 0.00452577f
c8730 7798 0 0.00452577f
c8731 7793 0 0.00452577f
c8732 7788 0 0.00452577f
c8733 7783 0 0.00452577f
c8734 7778 0 0.00452577f
c8735 7773 0 0.00452577f
c8736 7768 0 0.00452577f
c8737 7763 0 0.00452577f
c8738 7758 0 0.00452577f
c8739 7753 0 0.00452577f
c8740 7748 0 0.00452577f
c8741 7743 0 0.00452577f
c8742 7738 0 0.0045322f
c8743 7733 0 0.00452577f
c8744 7728 0 0.00452577f
c8745 7723 0 0.00452577f
c8746 7718 0 0.00452577f
c8747 7713 0 0.00452577f
c8748 7708 0 0.00452577f
c8749 7703 0 0.00452577f
c8750 7698 0 0.00452577f
c8751 7693 0 0.00452577f
c8752 7688 0 0.00452577f
c8753 7683 0 0.00452577f
c8754 7678 0 0.00452577f
c8755 7673 0 0.00452577f
c8756 7668 0 0.00452577f
c8757 7663 0 0.00452577f
c8758 7658 0 0.0045322f
c8759 7653 0 0.00452577f
c8760 7648 0 0.00452577f
c8761 7643 0 0.00452577f
c8762 7638 0 0.00452577f
c8763 7633 0 0.00452577f
c8764 7628 0 0.00452577f
c8765 7623 0 0.00452577f
c8766 7618 0 0.00452577f
c8767 7613 0 0.00452577f
c8768 7608 0 0.00452577f
c8769 7603 0 0.00452577f
c8770 7598 0 0.00452577f
c8771 7593 0 0.00452577f
c8772 7588 0 0.00452577f
c8773 7583 0 0.00452577f
c8774 7578 0 0.0045322f
c8775 7573 0 0.00452577f
c8776 7568 0 0.00452577f
c8777 7563 0 0.00452577f
c8778 7558 0 0.00452577f
c8779 7553 0 0.00452577f
c8780 7548 0 0.00452577f
c8781 7543 0 0.00452577f
c8782 7538 0 0.00452577f
c8783 7533 0 0.00452577f
c8784 7528 0 0.00452577f
c8785 7523 0 0.00452577f
c8786 7518 0 0.00452577f
c8787 7513 0 0.00452577f
c8788 7508 0 0.00452577f
c8789 7503 0 0.00452577f
c8790 7498 0 0.0045322f
c8791 7493 0 0.00452577f
c8792 7488 0 0.00452577f
c8793 7483 0 0.00452577f
c8794 7478 0 0.00452577f
c8795 7473 0 0.00452577f
c8796 7468 0 0.00452577f
c8797 7463 0 0.00452577f
c8798 7458 0 0.00452577f
c8799 7453 0 0.00452577f
c8800 7448 0 0.00452577f
c8801 7443 0 0.00452577f
c8802 7438 0 0.00452577f
c8803 7433 0 0.00452577f
c8804 7428 0 0.00452577f
c8805 7423 0 0.00452577f
c8806 7418 0 0.0045322f
c8807 7413 0 0.00452577f
c8808 7408 0 0.00452577f
c8809 7403 0 0.00452577f
c8810 7398 0 0.00452577f
c8811 7393 0 0.00452577f
c8812 7388 0 0.00452577f
c8813 7383 0 0.00452577f
c8814 7378 0 0.00452577f
c8815 7373 0 0.00452577f
c8816 7368 0 0.00452577f
c8817 7363 0 0.00452577f
c8818 7358 0 0.00452577f
c8819 7353 0 0.00452577f
c8820 7348 0 0.00452577f
c8821 7343 0 0.00452577f
c8822 7338 0 0.0045322f
c8823 7333 0 0.00452577f
c8824 7328 0 0.00452577f
c8825 7323 0 0.00452577f
c8826 7318 0 0.00452577f
c8827 7313 0 0.00452577f
c8828 7308 0 0.00452577f
c8829 7303 0 0.00452577f
c8830 7298 0 0.00452577f
c8831 7293 0 0.00452577f
c8832 7288 0 0.00452577f
c8833 7283 0 0.00452577f
c8834 7278 0 0.00452577f
c8835 7273 0 0.00452577f
c8836 7268 0 0.00452577f
c8837 7263 0 0.00452577f
c8838 7258 0 0.0045322f
c8839 7253 0 0.00452577f
c8840 7248 0 0.00452577f
c8841 7243 0 0.00452577f
c8842 7238 0 0.00452577f
c8843 7233 0 0.00452577f
c8844 7228 0 0.00452577f
c8845 7223 0 0.00452577f
c8846 7218 0 0.00452577f
c8847 7213 0 0.00452577f
c8848 7208 0 0.00452577f
c8849 7203 0 0.00452577f
c8850 7198 0 0.00452577f
c8851 7193 0 0.00452577f
c8852 7188 0 0.00452577f
c8853 7183 0 0.00452577f
c8854 7178 0 0.0045322f
c8855 7173 0 0.00452577f
c8856 7168 0 0.00452577f
c8857 7163 0 0.00452577f
c8858 7158 0 0.00452577f
c8859 7153 0 0.00452577f
c8860 7148 0 0.00452577f
c8861 7143 0 0.00452577f
c8862 7138 0 0.00452577f
c8863 7133 0 0.00452577f
c8864 7128 0 0.00452577f
c8865 7123 0 0.00452577f
c8866 7118 0 0.00452577f
c8867 7113 0 0.00452577f
c8868 7108 0 0.00452577f
c8869 7103 0 0.00452577f
c8870 7098 0 0.0045322f
c8871 7093 0 0.00452577f
c8872 7088 0 0.00452577f
c8873 7083 0 0.00452577f
c8874 7078 0 0.00452577f
c8875 7073 0 0.00452577f
c8876 7068 0 0.00452577f
c8877 7063 0 0.00452577f
c8878 7058 0 0.00452577f
c8879 7053 0 0.00452577f
c8880 7048 0 0.00452577f
c8881 7043 0 0.00452577f
c8882 7038 0 0.00452577f
c8883 7033 0 0.00452577f
c8884 7028 0 0.00452577f
c8885 7023 0 0.00452577f
c8886 7018 0 0.0045322f
c8887 7013 0 0.00452577f
c8888 7008 0 0.00452577f
c8889 7003 0 0.00452577f
c8890 6998 0 0.00452577f
c8891 6993 0 0.00452577f
c8892 6988 0 0.00452577f
c8893 6983 0 0.00452577f
c8894 6978 0 0.00452577f
c8895 6973 0 0.00452577f
c8896 6968 0 0.00452577f
c8897 6963 0 0.00452577f
c8898 6958 0 0.00452577f
c8899 6953 0 0.00452577f
c8900 6948 0 0.00452577f
c8901 6943 0 0.00452577f
c8902 6938 0 0.0045322f
c8903 6933 0 0.00452577f
c8904 6928 0 0.00452577f
c8905 6923 0 0.00452577f
c8906 6918 0 0.00452577f
c8907 6913 0 0.00452577f
c8908 6908 0 0.00452577f
c8909 6903 0 0.00452577f
c8910 6898 0 0.00452577f
c8911 6893 0 0.00452577f
c8912 6888 0 0.00452577f
c8913 6883 0 0.00452577f
c8914 6878 0 0.00452577f
c8915 6873 0 0.00452577f
c8916 6868 0 0.00452577f
c8917 6863 0 0.00452577f
c8918 6858 0 0.0045322f
c8919 6853 0 0.00452577f
c8920 6848 0 0.00452577f
c8921 6843 0 0.00452577f
c8922 6838 0 0.00452577f
c8923 6833 0 0.00452577f
c8924 6828 0 0.00452577f
c8925 6823 0 0.00452577f
c8926 6818 0 0.00452577f
c8927 6813 0 0.00452577f
c8928 6808 0 0.00452577f
c8929 6803 0 0.00452577f
c8930 6798 0 0.00452577f
c8931 6793 0 0.00452577f
c8932 6788 0 0.00452577f
c8933 6783 0 0.00452577f
c8934 6778 0 0.0045322f
c8935 6773 0 0.00452577f
c8936 6768 0 0.00452577f
c8937 6763 0 0.00452577f
c8938 6758 0 0.00452577f
c8939 6753 0 0.00452577f
c8940 6748 0 0.00452577f
c8941 6743 0 0.00452577f
c8942 6738 0 0.00452577f
c8943 6733 0 0.00452577f
c8944 6728 0 0.00452577f
c8945 6723 0 0.00452577f
c8946 6718 0 0.00452577f
c8947 6713 0 0.00452577f
c8948 6708 0 0.00452577f
c8949 6703 0 0.00452577f
c8950 6698 0 0.0045322f
c8951 6693 0 0.00452577f
c8952 6688 0 0.00452577f
c8953 6683 0 0.00452577f
c8954 6678 0 0.00452577f
c8955 6673 0 0.00452577f
c8956 6668 0 0.00452577f
c8957 6663 0 0.00452577f
c8958 6658 0 0.00452577f
c8959 6653 0 0.00452577f
c8960 6648 0 0.00452577f
c8961 6643 0 0.00452577f
c8962 6638 0 0.00452577f
c8963 6633 0 0.00452577f
c8964 6628 0 0.00452577f
c8965 6623 0 0.00452577f
c8966 6618 0 0.0045322f
c8967 6613 0 0.00452577f
c8968 6608 0 0.00452577f
c8969 6603 0 0.00452577f
c8970 6598 0 0.00452577f
c8971 6593 0 0.00452577f
c8972 6588 0 0.00452577f
c8973 6583 0 0.00452577f
c8974 6578 0 0.00452577f
c8975 6573 0 0.00452577f
c8976 6568 0 0.00452577f
c8977 6563 0 0.00452577f
c8978 6558 0 0.00452577f
c8979 6553 0 0.00452577f
c8980 6548 0 0.00452577f
c8981 6543 0 0.00452577f
c8982 6538 0 0.0045322f
c8983 6533 0 0.00452577f
c8984 6528 0 0.00452577f
c8985 6523 0 0.00452577f
c8986 6518 0 0.00452577f
c8987 6513 0 0.00452577f
c8988 6508 0 0.00452577f
c8989 6503 0 0.00452577f
c8990 6498 0 0.00452577f
c8991 6493 0 0.00452577f
c8992 6488 0 0.00452577f
c8993 6483 0 0.00452577f
c8994 6478 0 0.00452577f
c8995 6473 0 0.00452577f
c8996 6468 0 0.00452577f
c8997 6463 0 0.00452577f
c8998 6458 0 0.0045322f
c8999 6453 0 0.00452577f
c9000 6448 0 0.00452577f
c9001 6443 0 0.00452577f
c9002 6438 0 0.00452577f
c9003 6433 0 0.00452577f
c9004 6428 0 0.00452577f
c9005 6423 0 0.00452577f
c9006 6418 0 0.00452577f
c9007 6413 0 0.00452577f
c9008 6408 0 0.00452577f
c9009 6403 0 0.00452577f
c9010 6398 0 0.00452577f
c9011 6393 0 0.00452577f
c9012 6388 0 0.00452577f
c9013 6383 0 0.00452577f
c9014 6378 0 0.0045322f
c9015 6373 0 0.00452577f
c9016 6368 0 0.00452577f
c9017 6363 0 0.00452577f
c9018 6358 0 0.00452577f
c9019 6353 0 0.00452577f
c9020 6348 0 0.00452577f
c9021 6343 0 0.00452577f
c9022 6338 0 0.00452577f
c9023 6333 0 0.00452577f
c9024 6328 0 0.00452577f
c9025 6323 0 0.00452577f
c9026 6318 0 0.00452577f
c9027 6313 0 0.00452577f
c9028 6308 0 0.00452577f
c9029 6303 0 0.00452577f
c9030 6298 0 0.0045322f
c9031 6293 0 0.00452577f
c9032 6288 0 0.00452577f
c9033 6283 0 0.00452577f
c9034 6278 0 0.00452577f
c9035 6273 0 0.00452577f
c9036 6268 0 0.00452577f
c9037 6263 0 0.00452577f
c9038 6258 0 0.00452577f
c9039 6253 0 0.00452577f
c9040 6248 0 0.00452577f
c9041 6243 0 0.00452577f
c9042 6238 0 0.00452577f
c9043 6233 0 0.00452577f
c9044 6228 0 0.00452577f
c9045 6223 0 0.00452577f
c9046 6218 0 0.0045322f
c9047 6213 0 0.00452577f
c9048 6208 0 0.00452577f
c9049 6203 0 0.00452577f
c9050 6198 0 0.00452577f
c9051 6193 0 0.00452577f
c9052 6188 0 0.00452577f
c9053 6183 0 0.00452577f
c9054 6178 0 0.00452577f
c9055 6173 0 0.00452577f
c9056 6168 0 0.00452577f
c9057 6163 0 0.00452577f
c9058 6158 0 0.00452577f
c9059 6153 0 0.00452577f
c9060 6148 0 0.00452577f
c9061 6143 0 0.00452577f
c9062 6138 0 0.0045322f
c9063 6133 0 0.00452577f
c9064 6128 0 0.00452577f
c9065 6123 0 0.00452577f
c9066 6118 0 0.00452577f
c9067 6113 0 0.00452577f
c9068 6108 0 0.00452577f
c9069 6103 0 0.00452577f
c9070 6098 0 0.00452577f
c9071 6093 0 0.00452577f
c9072 6088 0 0.00452577f
c9073 6083 0 0.00452577f
c9074 6078 0 0.00452577f
c9075 6073 0 0.00452577f
c9076 6068 0 0.00452577f
c9077 6063 0 0.00452577f
c9078 6058 0 0.0045322f
c9079 6053 0 0.00452577f
c9080 6048 0 0.00452577f
c9081 6043 0 0.00452577f
c9082 6038 0 0.00452577f
c9083 6033 0 0.00452577f
c9084 6028 0 0.00452577f
c9085 6023 0 0.00452577f
c9086 6018 0 0.00452577f
c9087 6013 0 0.00452577f
c9088 6008 0 0.00452577f
c9089 6003 0 0.00452577f
c9090 5998 0 0.00452577f
c9091 5993 0 0.00452577f
c9092 5988 0 0.00452577f
c9093 5983 0 0.00452577f
c9094 5978 0 0.0045322f
c9095 5973 0 0.00452577f
c9096 5968 0 0.00452577f
c9097 5963 0 0.00452577f
c9098 5958 0 0.00452577f
c9099 5953 0 0.00452577f
c9100 5948 0 0.00452577f
c9101 5943 0 0.00452577f
c9102 5938 0 0.00452577f
c9103 5933 0 0.00349132f
c9104 5928 0 0.00261247f
c9105 5923 0 0.00261247f
c9106 5918 0 0.00261247f
c9107 5913 0 0.00261247f
c9108 5908 0 0.00261247f
c9109 5903 0 0.00261247f
c9110 5898 0 0.00261247f
c9111 5893 0 0.00261247f
c9112 5888 0 0.00261247f
c9113 5883 0 0.00261247f
c9114 5878 0 0.00261247f
c9115 5873 0 0.00261247f
c9116 5868 0 0.00261247f
c9117 5863 0 0.00261247f
c9118 5858 0 0.00356686f
c9119 1104 0 0.0075469f
c9120 1103 0 0.00754467f
c9121 1102 0 0.00754467f
c9122 1101 0 0.00754467f
c9123 1100 0 0.00754467f
c9124 1099 0 0.00754467f
c9125 1098 0 0.00754467f
c9126 1097 0 0.00754467f
c9127 1096 0 0.00754467f
c9128 1095 0 0.00754467f
c9129 1094 0 0.00754467f
c9130 1093 0 0.00754467f
c9131 1092 0 0.00754467f
c9132 1091 0 0.00754467f
c9133 1090 0 0.00754467f
c9134 1089 0 0.00773743f
c9135 512 0 0.00874443f
c9136 511 0 0.00874443f
c9137 510 0 0.00874443f
c9138 509 0 0.00874443f
c9139 508 0 0.00874443f
c9140 507 0 0.00874443f
c9141 506 0 0.00874443f
c9142 505 0 0.00876159f
c9143 504 0 0.00874443f
c9144 503 0 0.00874443f
c9145 502 0 0.00874443f
c9146 501 0 0.00874443f
c9147 500 0 0.00874443f
c9148 499 0 0.00874443f
c9149 498 0 0.00874443f
c9150 497 0 0.00882037f
c9151 496 0 0.00874443f
c9152 495 0 0.00874443f
c9153 494 0 0.00874443f
c9154 493 0 0.00874443f
c9155 492 0 0.00874443f
c9156 491 0 0.00874443f
c9157 490 0 0.00874443f
c9158 489 0 0.00876159f
c9159 488 0 0.00874443f
c9160 487 0 0.00874443f
c9161 486 0 0.00874443f
c9162 485 0 0.00874443f
c9163 484 0 0.00874443f
c9164 483 0 0.00874443f
c9165 482 0 0.00874443f
c9166 481 0 0.00882037f
c9167 480 0 0.00874443f
c9168 479 0 0.00874443f
c9169 478 0 0.00874443f
c9170 477 0 0.00874443f
c9171 476 0 0.00874443f
c9172 475 0 0.00874443f
c9173 474 0 0.00874443f
c9174 473 0 0.00876159f
c9175 472 0 0.00874443f
c9176 471 0 0.00874443f
c9177 470 0 0.00874443f
c9178 469 0 0.00874443f
c9179 468 0 0.00874443f
c9180 467 0 0.00874443f
c9181 466 0 0.00874443f
c9182 465 0 0.00882037f
c9183 464 0 0.00874443f
c9184 463 0 0.00874443f
c9185 462 0 0.00874443f
c9186 461 0 0.00874443f
c9187 460 0 0.00874443f
c9188 459 0 0.00874443f
c9189 458 0 0.00874443f
c9190 457 0 0.00876159f
c9191 456 0 0.00874443f
c9192 455 0 0.00874443f
c9193 454 0 0.00874443f
c9194 453 0 0.00874443f
c9195 452 0 0.00874443f
c9196 451 0 0.00874443f
c9197 450 0 0.00874443f
c9198 449 0 0.00882037f
c9199 448 0 0.00874443f
c9200 447 0 0.00874443f
c9201 446 0 0.00874443f
c9202 445 0 0.00874443f
c9203 444 0 0.00874443f
c9204 443 0 0.00874443f
c9205 442 0 0.00874443f
c9206 441 0 0.00876159f
c9207 440 0 0.00874443f
c9208 439 0 0.00874443f
c9209 438 0 0.00874443f
c9210 437 0 0.00874443f
c9211 436 0 0.00874443f
c9212 435 0 0.00874443f
c9213 434 0 0.00874443f
c9214 433 0 0.00882037f
c9215 432 0 0.00874443f
c9216 431 0 0.00874443f
c9217 430 0 0.00874443f
c9218 429 0 0.00874443f
c9219 428 0 0.00874443f
c9220 427 0 0.00874443f
c9221 426 0 0.00874443f
c9222 425 0 0.00876159f
c9223 424 0 0.00874443f
c9224 423 0 0.00874443f
c9225 422 0 0.00874443f
c9226 421 0 0.00874443f
c9227 420 0 0.00874443f
c9228 419 0 0.00874443f
c9229 418 0 0.00874443f
c9230 417 0 0.00882037f
c9231 416 0 0.00874443f
c9232 415 0 0.00874443f
c9233 414 0 0.00874443f
c9234 413 0 0.00874443f
c9235 412 0 0.00874443f
c9236 411 0 0.00874443f
c9237 410 0 0.00874443f
c9238 409 0 0.00876159f
c9239 408 0 0.00874443f
c9240 407 0 0.00874443f
c9241 406 0 0.00874443f
c9242 405 0 0.00874443f
c9243 404 0 0.00874443f
c9244 403 0 0.00874443f
c9245 402 0 0.00874443f
c9246 401 0 0.00882037f
c9247 400 0 0.00874443f
c9248 399 0 0.00874443f
c9249 398 0 0.00874443f
c9250 397 0 0.00874443f
c9251 396 0 0.00874443f
c9252 395 0 0.00874443f
c9253 394 0 0.00874443f
c9254 393 0 0.00876159f
c9255 392 0 0.00874443f
c9256 391 0 0.00874443f
c9257 390 0 0.00874443f
c9258 389 0 0.00874443f
c9259 388 0 0.00874443f
c9260 387 0 0.00874443f
c9261 386 0 0.00874443f
c9262 385 0 0.00882037f
c9263 384 0 0.00874443f
c9264 383 0 0.00874443f
c9265 382 0 0.00874443f
c9266 381 0 0.00874443f
c9267 380 0 0.00874443f
c9268 379 0 0.00874443f
c9269 378 0 0.00874443f
c9270 377 0 0.00876159f
c9271 376 0 0.00874443f
c9272 375 0 0.00874443f
c9273 374 0 0.00874443f
c9274 373 0 0.00874443f
c9275 372 0 0.00874443f
c9276 371 0 0.00874443f
c9277 370 0 0.00874443f
c9278 369 0 0.00882037f
c9279 368 0 0.00874443f
c9280 367 0 0.00874443f
c9281 366 0 0.00874443f
c9282 365 0 0.00874443f
c9283 364 0 0.00874443f
c9284 363 0 0.00874443f
c9285 362 0 0.00874443f
c9286 361 0 0.00876159f
c9287 360 0 0.00874443f
c9288 359 0 0.00874443f
c9289 358 0 0.00874443f
c9290 357 0 0.00874443f
c9291 356 0 0.00874443f
c9292 355 0 0.00874443f
c9293 354 0 0.00874443f
c9294 353 0 0.00882037f
c9295 352 0 0.00874443f
c9296 351 0 0.00874443f
c9297 350 0 0.00874443f
c9298 349 0 0.00874443f
c9299 348 0 0.00874443f
c9300 347 0 0.00874443f
c9301 346 0 0.00874443f
c9302 345 0 0.00876159f
c9303 344 0 0.00874443f
c9304 343 0 0.00874443f
c9305 342 0 0.00874443f
c9306 341 0 0.00874443f
c9307 340 0 0.00874443f
c9308 339 0 0.00874443f
c9309 338 0 0.00874443f
c9310 337 0 0.00882037f
c9311 336 0 0.00874443f
c9312 335 0 0.00874443f
c9313 334 0 0.00874443f
c9314 333 0 0.00874443f
c9315 332 0 0.00874443f
c9316 331 0 0.00874443f
c9317 330 0 0.00874443f
c9318 329 0 0.00876159f
c9319 328 0 0.00874443f
c9320 327 0 0.00874443f
c9321 326 0 0.00874443f
c9322 325 0 0.00874443f
c9323 324 0 0.00874443f
c9324 323 0 0.00874443f
c9325 322 0 0.00874443f
c9326 321 0 0.00882037f
c9327 320 0 0.00874443f
c9328 319 0 0.00874443f
c9329 318 0 0.00874443f
c9330 317 0 0.00874443f
c9331 316 0 0.00874443f
c9332 315 0 0.00874443f
c9333 314 0 0.00874443f
c9334 313 0 0.00876159f
c9335 312 0 0.00874443f
c9336 311 0 0.00874443f
c9337 310 0 0.00874443f
c9338 309 0 0.00874443f
c9339 308 0 0.00874443f
c9340 307 0 0.00874443f
c9341 306 0 0.00874443f
c9342 305 0 0.00882037f
c9343 304 0 0.00874443f
c9344 303 0 0.00874443f
c9345 302 0 0.00874443f
c9346 301 0 0.00874443f
c9347 300 0 0.00874443f
c9348 299 0 0.00874443f
c9349 298 0 0.00874443f
c9350 297 0 0.00876159f
c9351 296 0 0.00874443f
c9352 295 0 0.00874443f
c9353 294 0 0.00874443f
c9354 293 0 0.00874443f
c9355 292 0 0.00874443f
c9356 291 0 0.00874443f
c9357 290 0 0.00874443f
c9358 289 0 0.00882037f
c9359 288 0 0.00874443f
c9360 287 0 0.00874443f
c9361 286 0 0.00874443f
c9362 285 0 0.00874443f
c9363 284 0 0.00874443f
c9364 283 0 0.00874443f
c9365 282 0 0.00874443f
c9366 281 0 0.00876159f
c9367 280 0 0.00874443f
c9368 279 0 0.00874443f
c9369 278 0 0.00874443f
c9370 277 0 0.00874443f
c9371 276 0 0.00874443f
c9372 275 0 0.00874443f
c9373 274 0 0.00874443f
c9374 273 0 0.00882037f
c9375 272 0 0.00874443f
c9376 271 0 0.00874443f
c9377 270 0 0.00874443f
c9378 269 0 0.00874443f
c9379 268 0 0.00874443f
c9380 267 0 0.00874443f
c9381 266 0 0.00874443f
c9382 265 0 0.00876159f
c9383 264 0 0.00874443f
c9384 263 0 0.00874443f
c9385 262 0 0.00874443f
c9386 261 0 0.00874443f
c9387 260 0 0.00874443f
c9388 259 0 0.00874443f
c9389 258 0 0.00874443f
c9390 257 0 0.00882037f
c9391 256 0 0.00874443f
c9392 255 0 0.00874443f
c9393 254 0 0.00874443f
c9394 253 0 0.00874443f
c9395 252 0 0.00874443f
c9396 251 0 0.00874443f
c9397 250 0 0.00874443f
c9398 249 0 0.00876159f
c9399 248 0 0.00874443f
c9400 247 0 0.00874443f
c9401 246 0 0.00874443f
c9402 245 0 0.00874443f
c9403 244 0 0.00874443f
c9404 243 0 0.00874443f
c9405 242 0 0.00874443f
c9406 241 0 0.00882037f
c9407 240 0 0.00874443f
c9408 239 0 0.00874443f
c9409 238 0 0.00874443f
c9410 237 0 0.00874443f
c9411 236 0 0.00874443f
c9412 235 0 0.00874443f
c9413 234 0 0.00874443f
c9414 233 0 0.00876159f
c9415 232 0 0.00874443f
c9416 231 0 0.00874443f
c9417 230 0 0.00874443f
c9418 229 0 0.00874443f
c9419 228 0 0.00874443f
c9420 227 0 0.00874443f
c9421 226 0 0.00874443f
c9422 225 0 0.00882037f
c9423 224 0 0.00874443f
c9424 223 0 0.00874443f
c9425 222 0 0.00874443f
c9426 221 0 0.00874443f
c9427 220 0 0.00874443f
c9428 219 0 0.00874443f
c9429 218 0 0.00874443f
c9430 217 0 0.00876159f
c9431 216 0 0.00874443f
c9432 215 0 0.00874443f
c9433 214 0 0.00874443f
c9434 213 0 0.00874443f
c9435 212 0 0.00874443f
c9436 211 0 0.00874443f
c9437 210 0 0.00874443f
c9438 209 0 0.00882037f
c9439 208 0 0.00874443f
c9440 207 0 0.00874443f
c9441 206 0 0.00874443f
c9442 205 0 0.00874443f
c9443 204 0 0.00874443f
c9444 203 0 0.00874443f
c9445 202 0 0.00874443f
c9446 201 0 0.00876159f
c9447 200 0 0.00874443f
c9448 199 0 0.00874443f
c9449 198 0 0.00874443f
c9450 197 0 0.00874443f
c9451 196 0 0.00874443f
c9452 195 0 0.00874443f
c9453 194 0 0.00874443f
c9454 193 0 0.00882037f
c9455 192 0 0.00874443f
c9456 191 0 0.00874443f
c9457 190 0 0.00874443f
c9458 189 0 0.00874443f
c9459 188 0 0.00874443f
c9460 187 0 0.00874443f
c9461 186 0 0.00874443f
c9462 185 0 0.00876159f
c9463 184 0 0.00874443f
c9464 183 0 0.00874443f
c9465 182 0 0.00874443f
c9466 181 0 0.00874443f
c9467 180 0 0.00874443f
c9468 179 0 0.00874443f
c9469 178 0 0.00874443f
c9470 177 0 0.00882037f
c9471 176 0 0.00874443f
c9472 175 0 0.00874443f
c9473 174 0 0.00874443f
c9474 173 0 0.00874443f
c9475 172 0 0.00874443f
c9476 171 0 0.00874443f
c9477 170 0 0.00874443f
c9478 169 0 0.00876159f
c9479 168 0 0.00874443f
c9480 167 0 0.00874443f
c9481 166 0 0.00874443f
c9482 165 0 0.00874443f
c9483 164 0 0.00874443f
c9484 163 0 0.00874443f
c9485 162 0 0.00874443f
c9486 161 0 0.00882037f
c9487 160 0 0.00874443f
c9488 159 0 0.00874443f
c9489 158 0 0.00874443f
c9490 157 0 0.00874443f
c9491 156 0 0.00874443f
c9492 155 0 0.00874443f
c9493 154 0 0.00874443f
c9494 153 0 0.00876159f
c9495 152 0 0.00874443f