* File: SRAMArray.pex.netlist
* Created: Thu Nov 21 00:38:08 2024
* Program "Calibre xRC"
* Version "v2024.3_37.19"
* 
.include "SRAMArray.pex.netlist.pex"
.subckt SRAMArray  GND! !BL0 BL0 !BL1 BL1 !BL2 BL2 !BL3 BL3 !BL4 BL4 !BL5 BL5
+ !BL6 BL6 !BL7 BL7 !BL8 BL8 !BL9 BL9 !BL10 BL10 !BL11 BL11 !BL12 BL12 !BL13
+ BL13 !BL14 BL14 !BL15 BL15 !BL16 BL16 !BL17 BL17 !BL18 BL18 !BL19 BL19 !BL20
+ BL20 !BL21 BL21 !BL22 BL22 !BL23 BL23 !BL24 BL24 !BL25 BL25 !BL26 BL26 !BL27
+ BL27 !BL28 BL28 !BL29 BL29 !BL30 BL30 !BL31 BL31 WL15 WL14 WL13 WL12 WL11 WL10
+ WL9 WL8 WL7 WL6 WL5 WL4 WL3 WL2 WL1 WL0 CLK VDD!
* 
* VDD!	VDD!
* CLK	CLK
* WL0	WL0
* WL1	WL1
* WL2	WL2
* WL3	WL3
* WL4	WL4
* WL5	WL5
* WL6	WL6
* WL7	WL7
* WL8	WL8
* WL9	WL9
* WL10	WL10
* WL11	WL11
* WL12	WL12
* WL13	WL13
* WL14	WL14
* WL15	WL15
* BL31	BL31
* !BL31	!BL31
* BL30	BL30
* !BL30	!BL30
* BL29	BL29
* !BL29	!BL29
* BL28	BL28
* !BL28	!BL28
* BL27	BL27
* !BL27	!BL27
* BL26	BL26
* !BL26	!BL26
* BL25	BL25
* !BL25	!BL25
* BL24	BL24
* !BL24	!BL24
* BL23	BL23
* !BL23	!BL23
* BL22	BL22
* !BL22	!BL22
* BL21	BL21
* !BL21	!BL21
* BL20	BL20
* !BL20	!BL20
* BL19	BL19
* !BL19	!BL19
* BL18	BL18
* !BL18	!BL18
* BL17	BL17
* !BL17	!BL17
* BL16	BL16
* !BL16	!BL16
* BL15	BL15
* !BL15	!BL15
* BL14	BL14
* !BL14	!BL14
* BL13	BL13
* !BL13	!BL13
* BL12	BL12
* !BL12	!BL12
* BL11	BL11
* !BL11	!BL11
* BL10	BL10
* !BL10	!BL10
* BL9	BL9
* !BL9	!BL9
* BL8	BL8
* !BL8	!BL8
* BL7	BL7
* !BL7	!BL7
* BL6	BL6
* !BL6	!BL6
* BL5	BL5
* !BL5	!BL5
* BL4	BL4
* !BL4	!BL4
* BL3	BL3
* !BL3	!BL3
* BL2	BL2
* !BL2	!BL2
* BL1	BL1
* !BL1	!BL1
* BL0	BL0
* !BL0	!BL0
* GND!	GND!
mXI0.XI14.MM3 N_XI0.XI14.NET2_XI0.XI14.MM3_d N_WL15_XI0.XI14.MM3_g
+ N_!BL0_XI0.XI14.MM3_s N_GND!_XI0.XI14.MM3_b NMOS_VTL L=5e-08 W=1.75e-07
+ AD=8.51875e-14 AS=4.1125e-14 PD=1.27e-06 PS=8.2e-07
mXI0.XI15.MM3 N_XI0.XI15.NET2_XI0.XI15.MM3_d N_WL14_XI0.XI15.MM3_g
+ N_!BL0_XI0.XI15.MM3_s N_GND!_XI0.XI15.MM3_b NMOS_VTL L=5e-08 W=1.75e-07
+ AD=8.51875e-14 AS=4.1125e-14 PD=1.27e-06 PS=8.2e-07
mXI0.XI13.MM3 N_XI0.XI13.NET2_XI0.XI13.MM3_d N_WL13_XI0.XI13.MM3_g
+ N_!BL0_XI0.XI13.MM3_s N_GND!_XI0.XI13.MM3_b NMOS_VTL L=5e-08 W=1.75e-07
+ AD=8.51875e-14 AS=4.1125e-14 PD=1.27e-06 PS=8.2e-07
mXI0.XI16.MM3 N_XI0.XI16.NET2_XI0.XI16.MM3_d N_WL12_XI0.XI16.MM3_g
+ N_!BL0_XI0.XI16.MM3_s N_GND!_XI0.XI16.MM3_b NMOS_VTL L=5e-08 W=1.75e-07
+ AD=8.51875e-14 AS=4.1125e-14 PD=1.27e-06 PS=8.2e-07
mXI0.XI11.MM3 N_XI0.XI11.NET2_XI0.XI11.MM3_d N_WL11_XI0.XI11.MM3_g
+ N_!BL0_XI0.XI11.MM3_s N_GND!_XI0.XI11.MM3_b NMOS_VTL L=5e-08 W=1.75e-07
+ AD=8.51875e-14 AS=4.1125e-14 PD=1.27e-06 PS=8.2e-07
mXI0.XI12.MM3 N_XI0.XI12.NET2_XI0.XI12.MM3_d N_WL10_XI0.XI12.MM3_g
+ N_!BL0_XI0.XI12.MM3_s N_GND!_XI0.XI12.MM3_b NMOS_VTL L=5e-08 W=1.75e-07
+ AD=8.51875e-14 AS=4.1125e-14 PD=1.27e-06 PS=8.2e-07
mXI0.XI10.MM3 N_XI0.XI10.NET2_XI0.XI10.MM3_d N_WL9_XI0.XI10.MM3_g
+ N_!BL0_XI0.XI10.MM3_s N_GND!_XI0.XI10.MM3_b NMOS_VTL L=5e-08 W=1.75e-07
+ AD=8.51875e-14 AS=4.1125e-14 PD=1.27e-06 PS=8.2e-07
mXI0.XI17.MM3 N_XI0.XI17.NET2_XI0.XI17.MM3_d N_WL8_XI0.XI17.MM3_g
+ N_!BL0_XI0.XI17.MM3_s N_GND!_XI0.XI17.MM3_b NMOS_VTL L=5e-08 W=1.75e-07
+ AD=8.51875e-14 AS=4.1125e-14 PD=1.27e-06 PS=8.2e-07
mXI0.XI7.MM3 N_XI0.XI7.NET2_XI0.XI7.MM3_d N_WL7_XI0.XI7.MM3_g
+ N_!BL0_XI0.XI7.MM3_s N_GND!_XI0.XI7.MM3_b NMOS_VTL L=5e-08 W=1.75e-07
+ AD=8.51875e-14 AS=4.1125e-14 PD=1.27e-06 PS=8.2e-07
mXI0.XI8.MM3 N_XI0.XI8.NET2_XI0.XI8.MM3_d N_WL6_XI0.XI8.MM3_g
+ N_!BL0_XI0.XI8.MM3_s N_GND!_XI0.XI8.MM3_b NMOS_VTL L=5e-08 W=1.75e-07
+ AD=8.51875e-14 AS=4.1125e-14 PD=1.27e-06 PS=8.2e-07
mXI0.XI6.MM3 N_XI0.XI6.NET2_XI0.XI6.MM3_d N_WL5_XI0.XI6.MM3_g
+ N_!BL0_XI0.XI6.MM3_s N_GND!_XI0.XI6.MM3_b NMOS_VTL L=5e-08 W=1.75e-07
+ AD=8.51875e-14 AS=4.1125e-14 PD=1.27e-06 PS=8.2e-07
mXI0.XI9.MM3 N_XI0.XI9.NET2_XI0.XI9.MM3_d N_WL4_XI0.XI9.MM3_g
+ N_!BL0_XI0.XI9.MM3_s N_GND!_XI0.XI9.MM3_b NMOS_VTL L=5e-08 W=1.75e-07
+ AD=8.51875e-14 AS=4.1125e-14 PD=1.27e-06 PS=8.2e-07
mXI0.XI4.MM3 N_XI0.XI4.NET2_XI0.XI4.MM3_d N_WL3_XI0.XI4.MM3_g
+ N_!BL0_XI0.XI4.MM3_s N_GND!_XI0.XI4.MM3_b NMOS_VTL L=5e-08 W=1.75e-07
+ AD=8.51875e-14 AS=4.1125e-14 PD=1.27e-06 PS=8.2e-07
mXI0.XI5.MM3 N_XI0.XI5.NET2_XI0.XI5.MM3_d N_WL2_XI0.XI5.MM3_g
+ N_!BL0_XI0.XI5.MM3_s N_GND!_XI0.XI5.MM3_b NMOS_VTL L=5e-08 W=1.75e-07
+ AD=8.51875e-14 AS=4.1125e-14 PD=1.27e-06 PS=8.2e-07
mXI0.XI3.MM3 N_XI0.XI3.NET2_XI0.XI3.MM3_d N_WL1_XI0.XI3.MM3_g
+ N_!BL0_XI0.XI3.MM3_s N_GND!_XI0.XI3.MM3_b NMOS_VTL L=5e-08 W=1.75e-07
+ AD=8.51875e-14 AS=4.1125e-14 PD=1.27e-06 PS=8.2e-07
mXI0.XI0.MM3 N_XI0.XI0.NET2_XI0.XI0.MM3_d N_WL0_XI0.XI0.MM3_g
+ N_!BL0_XI0.XI0.MM3_s N_GND!_XI0.XI0.MM3_b NMOS_VTL L=5e-08 W=1.75e-07
+ AD=8.51875e-14 AS=4.1125e-14 PD=1.27e-06 PS=8.2e-07
mXI0.XI14.MM4 N_GND!_XI0.XI14.MM4_d N_XI0.XI14.NET9_XI0.XI14.MM4_g
+ N_XI0.XI14.NET2_XI0.XI14.MM3_d N_GND!_XI0.XI14.MM3_b NMOS_VTL L=5e-08 W=2e-07
+ AD=8.65375e-14 AS=8.51875e-14 PD=1.605e-06 PS=1.27e-06
mXI0.XI15.MM4 N_GND!_XI0.XI15.MM4_d N_XI0.XI15.NET9_XI0.XI15.MM4_g
+ N_XI0.XI15.NET2_XI0.XI15.MM3_d N_GND!_XI0.XI15.MM3_b NMOS_VTL L=5e-08 W=2e-07
+ AD=8.65375e-14 AS=8.51875e-14 PD=1.605e-06 PS=1.27e-06
mXI0.XI13.MM4 N_GND!_XI0.XI13.MM4_d N_XI0.XI13.NET9_XI0.XI13.MM4_g
+ N_XI0.XI13.NET2_XI0.XI13.MM3_d N_GND!_XI0.XI13.MM3_b NMOS_VTL L=5e-08 W=2e-07
+ AD=8.65375e-14 AS=8.51875e-14 PD=1.605e-06 PS=1.27e-06
mXI0.XI16.MM4 N_GND!_XI0.XI16.MM4_d N_XI0.XI16.NET9_XI0.XI16.MM4_g
+ N_XI0.XI16.NET2_XI0.XI16.MM3_d N_GND!_XI0.XI16.MM3_b NMOS_VTL L=5e-08 W=2e-07
+ AD=8.65375e-14 AS=8.51875e-14 PD=1.605e-06 PS=1.27e-06
mXI0.XI11.MM4 N_GND!_XI0.XI11.MM4_d N_XI0.XI11.NET9_XI0.XI11.MM4_g
+ N_XI0.XI11.NET2_XI0.XI11.MM3_d N_GND!_XI0.XI11.MM3_b NMOS_VTL L=5e-08 W=2e-07
+ AD=8.65375e-14 AS=8.51875e-14 PD=1.605e-06 PS=1.27e-06
mXI0.XI12.MM4 N_GND!_XI0.XI12.MM4_d N_XI0.XI12.NET9_XI0.XI12.MM4_g
+ N_XI0.XI12.NET2_XI0.XI12.MM3_d N_GND!_XI0.XI12.MM3_b NMOS_VTL L=5e-08 W=2e-07
+ AD=8.65375e-14 AS=8.51875e-14 PD=1.605e-06 PS=1.27e-06
mXI0.XI10.MM4 N_GND!_XI0.XI10.MM4_d N_XI0.XI10.NET9_XI0.XI10.MM4_g
+ N_XI0.XI10.NET2_XI0.XI10.MM3_d N_GND!_XI0.XI10.MM3_b NMOS_VTL L=5e-08 W=2e-07
+ AD=8.65375e-14 AS=8.51875e-14 PD=1.605e-06 PS=1.27e-06
mXI0.XI17.MM4 N_GND!_XI0.XI17.MM4_d N_XI0.XI17.NET9_XI0.XI17.MM4_g
+ N_XI0.XI17.NET2_XI0.XI17.MM3_d N_GND!_XI0.XI17.MM3_b NMOS_VTL L=5e-08 W=2e-07
+ AD=8.65375e-14 AS=8.51875e-14 PD=1.605e-06 PS=1.27e-06
mXI0.XI7.MM4 N_GND!_XI0.XI7.MM4_d N_XI0.XI7.NET9_XI0.XI7.MM4_g
+ N_XI0.XI7.NET2_XI0.XI7.MM3_d N_GND!_XI0.XI7.MM3_b NMOS_VTL L=5e-08 W=2e-07
+ AD=8.65375e-14 AS=8.51875e-14 PD=1.605e-06 PS=1.27e-06
mXI0.XI8.MM4 N_GND!_XI0.XI8.MM4_d N_XI0.XI8.NET9_XI0.XI8.MM4_g
+ N_XI0.XI8.NET2_XI0.XI8.MM3_d N_GND!_XI0.XI8.MM3_b NMOS_VTL L=5e-08 W=2e-07
+ AD=8.65375e-14 AS=8.51875e-14 PD=1.605e-06 PS=1.27e-06
mXI0.XI6.MM4 N_GND!_XI0.XI6.MM4_d N_XI0.XI6.NET9_XI0.XI6.MM4_g
+ N_XI0.XI6.NET2_XI0.XI6.MM3_d N_GND!_XI0.XI6.MM3_b NMOS_VTL L=5e-08 W=2e-07
+ AD=8.65375e-14 AS=8.51875e-14 PD=1.605e-06 PS=1.27e-06
mXI0.XI9.MM4 N_GND!_XI0.XI9.MM4_d N_XI0.XI9.NET9_XI0.XI9.MM4_g
+ N_XI0.XI9.NET2_XI0.XI9.MM3_d N_GND!_XI0.XI9.MM3_b NMOS_VTL L=5e-08 W=2e-07
+ AD=8.65375e-14 AS=8.51875e-14 PD=1.605e-06 PS=1.27e-06
mXI0.XI4.MM4 N_GND!_XI0.XI4.MM4_d N_XI0.XI4.NET9_XI0.XI4.MM4_g
+ N_XI0.XI4.NET2_XI0.XI4.MM3_d N_GND!_XI0.XI4.MM3_b NMOS_VTL L=5e-08 W=2e-07
+ AD=8.65375e-14 AS=8.51875e-14 PD=1.605e-06 PS=1.27e-06
mXI0.XI5.MM4 N_GND!_XI0.XI5.MM4_d N_XI0.XI5.NET9_XI0.XI5.MM4_g
+ N_XI0.XI5.NET2_XI0.XI5.MM3_d N_GND!_XI0.XI5.MM3_b NMOS_VTL L=5e-08 W=2e-07
+ AD=8.65375e-14 AS=8.51875e-14 PD=1.605e-06 PS=1.27e-06
mXI0.XI3.MM4 N_GND!_XI0.XI3.MM4_d N_XI0.XI3.NET9_XI0.XI3.MM4_g
+ N_XI0.XI3.NET2_XI0.XI3.MM3_d N_GND!_XI0.XI3.MM3_b NMOS_VTL L=5e-08 W=2e-07
+ AD=8.65375e-14 AS=8.51875e-14 PD=1.605e-06 PS=1.27e-06
mXI0.XI0.MM4 N_GND!_XI0.XI0.MM4_d N_XI0.XI0.NET9_XI0.XI0.MM4_g
+ N_XI0.XI0.NET2_XI0.XI0.MM3_d N_GND!_XI0.XI0.MM3_b NMOS_VTL L=5e-08 W=2e-07
+ AD=8.65375e-14 AS=8.51875e-14 PD=1.605e-06 PS=1.27e-06
mXI0.XI14.MM5 N_XI0.XI14.NET9_XI0.XI14.MM5_d N_XI0.XI14.NET2_XI0.XI14.MM5_g
+ N_GND!_XI0.XI14.MM4_d N_GND!_XI0.XI14.MM3_b NMOS_VTL L=5e-08 W=2e-07
+ AD=8.16875e-14 AS=8.65375e-14 PD=1.235e-06 PS=1.605e-06
mXI0.XI15.MM5 N_XI0.XI15.NET9_XI0.XI15.MM5_d N_XI0.XI15.NET2_XI0.XI15.MM5_g
+ N_GND!_XI0.XI15.MM4_d N_GND!_XI0.XI15.MM3_b NMOS_VTL L=5e-08 W=2e-07
+ AD=8.16875e-14 AS=8.65375e-14 PD=1.235e-06 PS=1.605e-06
mXI0.XI13.MM5 N_XI0.XI13.NET9_XI0.XI13.MM5_d N_XI0.XI13.NET2_XI0.XI13.MM5_g
+ N_GND!_XI0.XI13.MM4_d N_GND!_XI0.XI13.MM3_b NMOS_VTL L=5e-08 W=2e-07
+ AD=8.16875e-14 AS=8.65375e-14 PD=1.235e-06 PS=1.605e-06
mXI0.XI16.MM5 N_XI0.XI16.NET9_XI0.XI16.MM5_d N_XI0.XI16.NET2_XI0.XI16.MM5_g
+ N_GND!_XI0.XI16.MM4_d N_GND!_XI0.XI16.MM3_b NMOS_VTL L=5e-08 W=2e-07
+ AD=8.16875e-14 AS=8.65375e-14 PD=1.235e-06 PS=1.605e-06
mXI0.XI11.MM5 N_XI0.XI11.NET9_XI0.XI11.MM5_d N_XI0.XI11.NET2_XI0.XI11.MM5_g
+ N_GND!_XI0.XI11.MM4_d N_GND!_XI0.XI11.MM3_b NMOS_VTL L=5e-08 W=2e-07
+ AD=8.16875e-14 AS=8.65375e-14 PD=1.235e-06 PS=1.605e-06
mXI0.XI12.MM5 N_XI0.XI12.NET9_XI0.XI12.MM5_d N_XI0.XI12.NET2_XI0.XI12.MM5_g
+ N_GND!_XI0.XI12.MM4_d N_GND!_XI0.XI12.MM3_b NMOS_VTL L=5e-08 W=2e-07
+ AD=8.16875e-14 AS=8.65375e-14 PD=1.235e-06 PS=1.605e-06
mXI0.XI10.MM5 N_XI0.XI10.NET9_XI0.XI10.MM5_d N_XI0.XI10.NET2_XI0.XI10.MM5_g
+ N_GND!_XI0.XI10.MM4_d N_GND!_XI0.XI10.MM3_b NMOS_VTL L=5e-08 W=2e-07
+ AD=8.16875e-14 AS=8.65375e-14 PD=1.235e-06 PS=1.605e-06
mXI0.XI17.MM5 N_XI0.XI17.NET9_XI0.XI17.MM5_d N_XI0.XI17.NET2_XI0.XI17.MM5_g
+ N_GND!_XI0.XI17.MM4_d N_GND!_XI0.XI17.MM3_b NMOS_VTL L=5e-08 W=2e-07
+ AD=8.16875e-14 AS=8.65375e-14 PD=1.235e-06 PS=1.605e-06
mXI0.XI7.MM5 N_XI0.XI7.NET9_XI0.XI7.MM5_d N_XI0.XI7.NET2_XI0.XI7.MM5_g
+ N_GND!_XI0.XI7.MM4_d N_GND!_XI0.XI7.MM3_b NMOS_VTL L=5e-08 W=2e-07
+ AD=8.16875e-14 AS=8.65375e-14 PD=1.235e-06 PS=1.605e-06
mXI0.XI8.MM5 N_XI0.XI8.NET9_XI0.XI8.MM5_d N_XI0.XI8.NET2_XI0.XI8.MM5_g
+ N_GND!_XI0.XI8.MM4_d N_GND!_XI0.XI8.MM3_b NMOS_VTL L=5e-08 W=2e-07
+ AD=8.16875e-14 AS=8.65375e-14 PD=1.235e-06 PS=1.605e-06
mXI0.XI6.MM5 N_XI0.XI6.NET9_XI0.XI6.MM5_d N_XI0.XI6.NET2_XI0.XI6.MM5_g
+ N_GND!_XI0.XI6.MM4_d N_GND!_XI0.XI6.MM3_b NMOS_VTL L=5e-08 W=2e-07
+ AD=8.16875e-14 AS=8.65375e-14 PD=1.235e-06 PS=1.605e-06
mXI0.XI9.MM5 N_XI0.XI9.NET9_XI0.XI9.MM5_d N_XI0.XI9.NET2_XI0.XI9.MM5_g
+ N_GND!_XI0.XI9.MM4_d N_GND!_XI0.XI9.MM3_b NMOS_VTL L=5e-08 W=2e-07
+ AD=8.16875e-14 AS=8.65375e-14 PD=1.235e-06 PS=1.605e-06
mXI0.XI4.MM5 N_XI0.XI4.NET9_XI0.XI4.MM5_d N_XI0.XI4.NET2_XI0.XI4.MM5_g
+ N_GND!_XI0.XI4.MM4_d N_GND!_XI0.XI4.MM3_b NMOS_VTL L=5e-08 W=2e-07
+ AD=8.16875e-14 AS=8.65375e-14 PD=1.235e-06 PS=1.605e-06
mXI0.XI5.MM5 N_XI0.XI5.NET9_XI0.XI5.MM5_d N_XI0.XI5.NET2_XI0.XI5.MM5_g
+ N_GND!_XI0.XI5.MM4_d N_GND!_XI0.XI5.MM3_b NMOS_VTL L=5e-08 W=2e-07
+ AD=8.16875e-14 AS=8.65375e-14 PD=1.235e-06 PS=1.605e-06
mXI0.XI3.MM5 N_XI0.XI3.NET9_XI0.XI3.MM5_d N_XI0.XI3.NET2_XI0.XI3.MM5_g
+ N_GND!_XI0.XI3.MM4_d N_GND!_XI0.XI3.MM3_b NMOS_VTL L=5e-08 W=2e-07
+ AD=8.16875e-14 AS=8.65375e-14 PD=1.235e-06 PS=1.605e-06
mXI0.XI0.MM5 N_XI0.XI0.NET9_XI0.XI0.MM5_d N_XI0.XI0.NET2_XI0.XI0.MM5_g
+ N_GND!_XI0.XI0.MM4_d N_GND!_XI0.XI0.MM3_b NMOS_VTL L=5e-08 W=2e-07
+ AD=8.16875e-14 AS=8.65375e-14 PD=1.235e-06 PS=1.605e-06
mXI0.XI14.MM2 N_BL0_XI0.XI14.MM2_d N_WL15_XI0.XI14.MM2_g
+ N_XI0.XI14.NET9_XI0.XI14.MM5_d N_GND!_XI0.XI14.MM3_b NMOS_VTL L=5e-08
+ W=1.75e-07 AD=4.1125e-14 AS=8.16875e-14 PD=8.2e-07 PS=1.235e-06
mXI0.XI15.MM2 N_BL0_XI0.XI15.MM2_d N_WL14_XI0.XI15.MM2_g
+ N_XI0.XI15.NET9_XI0.XI15.MM5_d N_GND!_XI0.XI15.MM3_b NMOS_VTL L=5e-08
+ W=1.75e-07 AD=4.1125e-14 AS=8.16875e-14 PD=8.2e-07 PS=1.235e-06
mXI0.XI13.MM2 N_BL0_XI0.XI13.MM2_d N_WL13_XI0.XI13.MM2_g
+ N_XI0.XI13.NET9_XI0.XI13.MM5_d N_GND!_XI0.XI13.MM3_b NMOS_VTL L=5e-08
+ W=1.75e-07 AD=4.1125e-14 AS=8.16875e-14 PD=8.2e-07 PS=1.235e-06
mXI0.XI16.MM2 N_BL0_XI0.XI16.MM2_d N_WL12_XI0.XI16.MM2_g
+ N_XI0.XI16.NET9_XI0.XI16.MM5_d N_GND!_XI0.XI16.MM3_b NMOS_VTL L=5e-08
+ W=1.75e-07 AD=4.1125e-14 AS=8.16875e-14 PD=8.2e-07 PS=1.235e-06
mXI0.XI11.MM2 N_BL0_XI0.XI11.MM2_d N_WL11_XI0.XI11.MM2_g
+ N_XI0.XI11.NET9_XI0.XI11.MM5_d N_GND!_XI0.XI11.MM3_b NMOS_VTL L=5e-08
+ W=1.75e-07 AD=4.1125e-14 AS=8.16875e-14 PD=8.2e-07 PS=1.235e-06
mXI0.XI12.MM2 N_BL0_XI0.XI12.MM2_d N_WL10_XI0.XI12.MM2_g
+ N_XI0.XI12.NET9_XI0.XI12.MM5_d N_GND!_XI0.XI12.MM3_b NMOS_VTL L=5e-08
+ W=1.75e-07 AD=4.1125e-14 AS=8.16875e-14 PD=8.2e-07 PS=1.235e-06
mXI0.XI10.MM2 N_BL0_XI0.XI10.MM2_d N_WL9_XI0.XI10.MM2_g
+ N_XI0.XI10.NET9_XI0.XI10.MM5_d N_GND!_XI0.XI10.MM3_b NMOS_VTL L=5e-08
+ W=1.75e-07 AD=4.1125e-14 AS=8.16875e-14 PD=8.2e-07 PS=1.235e-06
mXI0.XI17.MM2 N_BL0_XI0.XI17.MM2_d N_WL8_XI0.XI17.MM2_g
+ N_XI0.XI17.NET9_XI0.XI17.MM5_d N_GND!_XI0.XI17.MM3_b NMOS_VTL L=5e-08
+ W=1.75e-07 AD=4.1125e-14 AS=8.16875e-14 PD=8.2e-07 PS=1.235e-06
mXI0.XI7.MM2 N_BL0_XI0.XI7.MM2_d N_WL7_XI0.XI7.MM2_g
+ N_XI0.XI7.NET9_XI0.XI7.MM5_d N_GND!_XI0.XI7.MM3_b NMOS_VTL L=5e-08 W=1.75e-07
+ AD=4.1125e-14 AS=8.16875e-14 PD=8.2e-07 PS=1.235e-06
mXI0.XI8.MM2 N_BL0_XI0.XI8.MM2_d N_WL6_XI0.XI8.MM2_g
+ N_XI0.XI8.NET9_XI0.XI8.MM5_d N_GND!_XI0.XI8.MM3_b NMOS_VTL L=5e-08 W=1.75e-07
+ AD=4.1125e-14 AS=8.16875e-14 PD=8.2e-07 PS=1.235e-06
mXI0.XI6.MM2 N_BL0_XI0.XI6.MM2_d N_WL5_XI0.XI6.MM2_g
+ N_XI0.XI6.NET9_XI0.XI6.MM5_d N_GND!_XI0.XI6.MM3_b NMOS_VTL L=5e-08 W=1.75e-07
+ AD=4.1125e-14 AS=8.16875e-14 PD=8.2e-07 PS=1.235e-06
mXI0.XI9.MM2 N_BL0_XI0.XI9.MM2_d N_WL4_XI0.XI9.MM2_g
+ N_XI0.XI9.NET9_XI0.XI9.MM5_d N_GND!_XI0.XI9.MM3_b NMOS_VTL L=5e-08 W=1.75e-07
+ AD=4.1125e-14 AS=8.16875e-14 PD=8.2e-07 PS=1.235e-06
mXI0.XI4.MM2 N_BL0_XI0.XI4.MM2_d N_WL3_XI0.XI4.MM2_g
+ N_XI0.XI4.NET9_XI0.XI4.MM5_d N_GND!_XI0.XI4.MM3_b NMOS_VTL L=5e-08 W=1.75e-07
+ AD=4.1125e-14 AS=8.16875e-14 PD=8.2e-07 PS=1.235e-06
mXI0.XI5.MM2 N_BL0_XI0.XI5.MM2_d N_WL2_XI0.XI5.MM2_g
+ N_XI0.XI5.NET9_XI0.XI5.MM5_d N_GND!_XI0.XI5.MM3_b NMOS_VTL L=5e-08 W=1.75e-07
+ AD=4.1125e-14 AS=8.16875e-14 PD=8.2e-07 PS=1.235e-06
mXI0.XI3.MM2 N_BL0_XI0.XI3.MM2_d N_WL1_XI0.XI3.MM2_g
+ N_XI0.XI3.NET9_XI0.XI3.MM5_d N_GND!_XI0.XI3.MM3_b NMOS_VTL L=5e-08 W=1.75e-07
+ AD=4.1125e-14 AS=8.16875e-14 PD=8.2e-07 PS=1.235e-06
mXI0.XI0.MM2 N_BL0_XI0.XI0.MM2_d N_WL0_XI0.XI0.MM2_g
+ N_XI0.XI0.NET9_XI0.XI0.MM5_d N_GND!_XI0.XI0.MM3_b NMOS_VTL L=5e-08 W=1.75e-07
+ AD=4.1125e-14 AS=8.16875e-14 PD=8.2e-07 PS=1.235e-06
mXI1.XI14.MM3 N_XI1.XI14.NET2_XI1.XI14.MM3_d N_WL15_XI1.XI14.MM3_g
+ N_!BL1_XI1.XI14.MM3_s N_GND!_XI0.XI14.MM3_b NMOS_VTL L=5e-08 W=1.75e-07
+ AD=8.51875e-14 AS=4.1125e-14 PD=1.27e-06 PS=8.2e-07
mXI1.XI15.MM3 N_XI1.XI15.NET2_XI1.XI15.MM3_d N_WL14_XI1.XI15.MM3_g
+ N_!BL1_XI1.XI15.MM3_s N_GND!_XI0.XI15.MM3_b NMOS_VTL L=5e-08 W=1.75e-07
+ AD=8.51875e-14 AS=4.1125e-14 PD=1.27e-06 PS=8.2e-07
mXI1.XI13.MM3 N_XI1.XI13.NET2_XI1.XI13.MM3_d N_WL13_XI1.XI13.MM3_g
+ N_!BL1_XI1.XI13.MM3_s N_GND!_XI0.XI13.MM3_b NMOS_VTL L=5e-08 W=1.75e-07
+ AD=8.51875e-14 AS=4.1125e-14 PD=1.27e-06 PS=8.2e-07
mXI1.XI16.MM3 N_XI1.XI16.NET2_XI1.XI16.MM3_d N_WL12_XI1.XI16.MM3_g
+ N_!BL1_XI1.XI16.MM3_s N_GND!_XI0.XI16.MM3_b NMOS_VTL L=5e-08 W=1.75e-07
+ AD=8.51875e-14 AS=4.1125e-14 PD=1.27e-06 PS=8.2e-07
mXI1.XI11.MM3 N_XI1.XI11.NET2_XI1.XI11.MM3_d N_WL11_XI1.XI11.MM3_g
+ N_!BL1_XI1.XI11.MM3_s N_GND!_XI0.XI11.MM3_b NMOS_VTL L=5e-08 W=1.75e-07
+ AD=8.51875e-14 AS=4.1125e-14 PD=1.27e-06 PS=8.2e-07
mXI1.XI12.MM3 N_XI1.XI12.NET2_XI1.XI12.MM3_d N_WL10_XI1.XI12.MM3_g
+ N_!BL1_XI1.XI12.MM3_s N_GND!_XI0.XI12.MM3_b NMOS_VTL L=5e-08 W=1.75e-07
+ AD=8.51875e-14 AS=4.1125e-14 PD=1.27e-06 PS=8.2e-07
mXI1.XI10.MM3 N_XI1.XI10.NET2_XI1.XI10.MM3_d N_WL9_XI1.XI10.MM3_g
+ N_!BL1_XI1.XI10.MM3_s N_GND!_XI0.XI10.MM3_b NMOS_VTL L=5e-08 W=1.75e-07
+ AD=8.51875e-14 AS=4.1125e-14 PD=1.27e-06 PS=8.2e-07
mXI1.XI17.MM3 N_XI1.XI17.NET2_XI1.XI17.MM3_d N_WL8_XI1.XI17.MM3_g
+ N_!BL1_XI1.XI17.MM3_s N_GND!_XI0.XI17.MM3_b NMOS_VTL L=5e-08 W=1.75e-07
+ AD=8.51875e-14 AS=4.1125e-14 PD=1.27e-06 PS=8.2e-07
mXI1.XI7.MM3 N_XI1.XI7.NET2_XI1.XI7.MM3_d N_WL7_XI1.XI7.MM3_g
+ N_!BL1_XI1.XI7.MM3_s N_GND!_XI0.XI7.MM3_b NMOS_VTL L=5e-08 W=1.75e-07
+ AD=8.51875e-14 AS=4.1125e-14 PD=1.27e-06 PS=8.2e-07
mXI1.XI8.MM3 N_XI1.XI8.NET2_XI1.XI8.MM3_d N_WL6_XI1.XI8.MM3_g
+ N_!BL1_XI1.XI8.MM3_s N_GND!_XI0.XI8.MM3_b NMOS_VTL L=5e-08 W=1.75e-07
+ AD=8.51875e-14 AS=4.1125e-14 PD=1.27e-06 PS=8.2e-07
mXI1.XI6.MM3 N_XI1.XI6.NET2_XI1.XI6.MM3_d N_WL5_XI1.XI6.MM3_g
+ N_!BL1_XI1.XI6.MM3_s N_GND!_XI0.XI6.MM3_b NMOS_VTL L=5e-08 W=1.75e-07
+ AD=8.51875e-14 AS=4.1125e-14 PD=1.27e-06 PS=8.2e-07
mXI1.XI9.MM3 N_XI1.XI9.NET2_XI1.XI9.MM3_d N_WL4_XI1.XI9.MM3_g
+ N_!BL1_XI1.XI9.MM3_s N_GND!_XI0.XI9.MM3_b NMOS_VTL L=5e-08 W=1.75e-07
+ AD=8.51875e-14 AS=4.1125e-14 PD=1.27e-06 PS=8.2e-07
mXI1.XI4.MM3 N_XI1.XI4.NET2_XI1.XI4.MM3_d N_WL3_XI1.XI4.MM3_g
+ N_!BL1_XI1.XI4.MM3_s N_GND!_XI0.XI4.MM3_b NMOS_VTL L=5e-08 W=1.75e-07
+ AD=8.51875e-14 AS=4.1125e-14 PD=1.27e-06 PS=8.2e-07
mXI1.XI5.MM3 N_XI1.XI5.NET2_XI1.XI5.MM3_d N_WL2_XI1.XI5.MM3_g
+ N_!BL1_XI1.XI5.MM3_s N_GND!_XI0.XI5.MM3_b NMOS_VTL L=5e-08 W=1.75e-07
+ AD=8.51875e-14 AS=4.1125e-14 PD=1.27e-06 PS=8.2e-07
mXI1.XI3.MM3 N_XI1.XI3.NET2_XI1.XI3.MM3_d N_WL1_XI1.XI3.MM3_g
+ N_!BL1_XI1.XI3.MM3_s N_GND!_XI0.XI3.MM3_b NMOS_VTL L=5e-08 W=1.75e-07
+ AD=8.51875e-14 AS=4.1125e-14 PD=1.27e-06 PS=8.2e-07
mXI1.XI0.MM3 N_XI1.XI0.NET2_XI1.XI0.MM3_d N_WL0_XI1.XI0.MM3_g
+ N_!BL1_XI1.XI0.MM3_s N_GND!_XI0.XI0.MM3_b NMOS_VTL L=5e-08 W=1.75e-07
+ AD=8.51875e-14 AS=4.1125e-14 PD=1.27e-06 PS=8.2e-07
mXI1.XI14.MM4 N_GND!_XI1.XI14.MM4_d N_XI1.XI14.NET9_XI1.XI14.MM4_g
+ N_XI1.XI14.NET2_XI1.XI14.MM3_d N_GND!_XI0.XI14.MM3_b NMOS_VTL L=5e-08 W=2e-07
+ AD=8.65375e-14 AS=8.51875e-14 PD=1.605e-06 PS=1.27e-06
mXI1.XI15.MM4 N_GND!_XI1.XI15.MM4_d N_XI1.XI15.NET9_XI1.XI15.MM4_g
+ N_XI1.XI15.NET2_XI1.XI15.MM3_d N_GND!_XI0.XI15.MM3_b NMOS_VTL L=5e-08 W=2e-07
+ AD=8.65375e-14 AS=8.51875e-14 PD=1.605e-06 PS=1.27e-06
mXI1.XI13.MM4 N_GND!_XI1.XI13.MM4_d N_XI1.XI13.NET9_XI1.XI13.MM4_g
+ N_XI1.XI13.NET2_XI1.XI13.MM3_d N_GND!_XI0.XI13.MM3_b NMOS_VTL L=5e-08 W=2e-07
+ AD=8.65375e-14 AS=8.51875e-14 PD=1.605e-06 PS=1.27e-06
mXI1.XI16.MM4 N_GND!_XI1.XI16.MM4_d N_XI1.XI16.NET9_XI1.XI16.MM4_g
+ N_XI1.XI16.NET2_XI1.XI16.MM3_d N_GND!_XI0.XI16.MM3_b NMOS_VTL L=5e-08 W=2e-07
+ AD=8.65375e-14 AS=8.51875e-14 PD=1.605e-06 PS=1.27e-06
mXI1.XI11.MM4 N_GND!_XI1.XI11.MM4_d N_XI1.XI11.NET9_XI1.XI11.MM4_g
+ N_XI1.XI11.NET2_XI1.XI11.MM3_d N_GND!_XI0.XI11.MM3_b NMOS_VTL L=5e-08 W=2e-07
+ AD=8.65375e-14 AS=8.51875e-14 PD=1.605e-06 PS=1.27e-06
mXI1.XI12.MM4 N_GND!_XI1.XI12.MM4_d N_XI1.XI12.NET9_XI1.XI12.MM4_g
+ N_XI1.XI12.NET2_XI1.XI12.MM3_d N_GND!_XI0.XI12.MM3_b NMOS_VTL L=5e-08 W=2e-07
+ AD=8.65375e-14 AS=8.51875e-14 PD=1.605e-06 PS=1.27e-06
mXI1.XI10.MM4 N_GND!_XI1.XI10.MM4_d N_XI1.XI10.NET9_XI1.XI10.MM4_g
+ N_XI1.XI10.NET2_XI1.XI10.MM3_d N_GND!_XI0.XI10.MM3_b NMOS_VTL L=5e-08 W=2e-07
+ AD=8.65375e-14 AS=8.51875e-14 PD=1.605e-06 PS=1.27e-06
mXI1.XI17.MM4 N_GND!_XI1.XI17.MM4_d N_XI1.XI17.NET9_XI1.XI17.MM4_g
+ N_XI1.XI17.NET2_XI1.XI17.MM3_d N_GND!_XI0.XI17.MM3_b NMOS_VTL L=5e-08 W=2e-07
+ AD=8.65375e-14 AS=8.51875e-14 PD=1.605e-06 PS=1.27e-06
mXI1.XI7.MM4 N_GND!_XI1.XI7.MM4_d N_XI1.XI7.NET9_XI1.XI7.MM4_g
+ N_XI1.XI7.NET2_XI1.XI7.MM3_d N_GND!_XI0.XI7.MM3_b NMOS_VTL L=5e-08 W=2e-07
+ AD=8.65375e-14 AS=8.51875e-14 PD=1.605e-06 PS=1.27e-06
mXI1.XI8.MM4 N_GND!_XI1.XI8.MM4_d N_XI1.XI8.NET9_XI1.XI8.MM4_g
+ N_XI1.XI8.NET2_XI1.XI8.MM3_d N_GND!_XI0.XI8.MM3_b NMOS_VTL L=5e-08 W=2e-07
+ AD=8.65375e-14 AS=8.51875e-14 PD=1.605e-06 PS=1.27e-06
mXI1.XI6.MM4 N_GND!_XI1.XI6.MM4_d N_XI1.XI6.NET9_XI1.XI6.MM4_g
+ N_XI1.XI6.NET2_XI1.XI6.MM3_d N_GND!_XI0.XI6.MM3_b NMOS_VTL L=5e-08 W=2e-07
+ AD=8.65375e-14 AS=8.51875e-14 PD=1.605e-06 PS=1.27e-06
mXI1.XI9.MM4 N_GND!_XI1.XI9.MM4_d N_XI1.XI9.NET9_XI1.XI9.MM4_g
+ N_XI1.XI9.NET2_XI1.XI9.MM3_d N_GND!_XI0.XI9.MM3_b NMOS_VTL L=5e-08 W=2e-07
+ AD=8.65375e-14 AS=8.51875e-14 PD=1.605e-06 PS=1.27e-06
mXI1.XI4.MM4 N_GND!_XI1.XI4.MM4_d N_XI1.XI4.NET9_XI1.XI4.MM4_g
+ N_XI1.XI4.NET2_XI1.XI4.MM3_d N_GND!_XI0.XI4.MM3_b NMOS_VTL L=5e-08 W=2e-07
+ AD=8.65375e-14 AS=8.51875e-14 PD=1.605e-06 PS=1.27e-06
mXI1.XI5.MM4 N_GND!_XI1.XI5.MM4_d N_XI1.XI5.NET9_XI1.XI5.MM4_g
+ N_XI1.XI5.NET2_XI1.XI5.MM3_d N_GND!_XI0.XI5.MM3_b NMOS_VTL L=5e-08 W=2e-07
+ AD=8.65375e-14 AS=8.51875e-14 PD=1.605e-06 PS=1.27e-06
mXI1.XI3.MM4 N_GND!_XI1.XI3.MM4_d N_XI1.XI3.NET9_XI1.XI3.MM4_g
+ N_XI1.XI3.NET2_XI1.XI3.MM3_d N_GND!_XI0.XI3.MM3_b NMOS_VTL L=5e-08 W=2e-07
+ AD=8.65375e-14 AS=8.51875e-14 PD=1.605e-06 PS=1.27e-06
mXI1.XI0.MM4 N_GND!_XI1.XI0.MM4_d N_XI1.XI0.NET9_XI1.XI0.MM4_g
+ N_XI1.XI0.NET2_XI1.XI0.MM3_d N_GND!_XI0.XI0.MM3_b NMOS_VTL L=5e-08 W=2e-07
+ AD=8.65375e-14 AS=8.51875e-14 PD=1.605e-06 PS=1.27e-06
mXI1.XI14.MM5 N_XI1.XI14.NET9_XI1.XI14.MM5_d N_XI1.XI14.NET2_XI1.XI14.MM5_g
+ N_GND!_XI1.XI14.MM4_d N_GND!_XI0.XI14.MM3_b NMOS_VTL L=5e-08 W=2e-07
+ AD=8.16875e-14 AS=8.65375e-14 PD=1.235e-06 PS=1.605e-06
mXI1.XI15.MM5 N_XI1.XI15.NET9_XI1.XI15.MM5_d N_XI1.XI15.NET2_XI1.XI15.MM5_g
+ N_GND!_XI1.XI15.MM4_d N_GND!_XI0.XI15.MM3_b NMOS_VTL L=5e-08 W=2e-07
+ AD=8.16875e-14 AS=8.65375e-14 PD=1.235e-06 PS=1.605e-06
mXI1.XI13.MM5 N_XI1.XI13.NET9_XI1.XI13.MM5_d N_XI1.XI13.NET2_XI1.XI13.MM5_g
+ N_GND!_XI1.XI13.MM4_d N_GND!_XI0.XI13.MM3_b NMOS_VTL L=5e-08 W=2e-07
+ AD=8.16875e-14 AS=8.65375e-14 PD=1.235e-06 PS=1.605e-06
mXI1.XI16.MM5 N_XI1.XI16.NET9_XI1.XI16.MM5_d N_XI1.XI16.NET2_XI1.XI16.MM5_g
+ N_GND!_XI1.XI16.MM4_d N_GND!_XI0.XI16.MM3_b NMOS_VTL L=5e-08 W=2e-07
+ AD=8.16875e-14 AS=8.65375e-14 PD=1.235e-06 PS=1.605e-06
mXI1.XI11.MM5 N_XI1.XI11.NET9_XI1.XI11.MM5_d N_XI1.XI11.NET2_XI1.XI11.MM5_g
+ N_GND!_XI1.XI11.MM4_d N_GND!_XI0.XI11.MM3_b NMOS_VTL L=5e-08 W=2e-07
+ AD=8.16875e-14 AS=8.65375e-14 PD=1.235e-06 PS=1.605e-06
mXI1.XI12.MM5 N_XI1.XI12.NET9_XI1.XI12.MM5_d N_XI1.XI12.NET2_XI1.XI12.MM5_g
+ N_GND!_XI1.XI12.MM4_d N_GND!_XI0.XI12.MM3_b NMOS_VTL L=5e-08 W=2e-07
+ AD=8.16875e-14 AS=8.65375e-14 PD=1.235e-06 PS=1.605e-06
mXI1.XI10.MM5 N_XI1.XI10.NET9_XI1.XI10.MM5_d N_XI1.XI10.NET2_XI1.XI10.MM5_g
+ N_GND!_XI1.XI10.MM4_d N_GND!_XI0.XI10.MM3_b NMOS_VTL L=5e-08 W=2e-07
+ AD=8.16875e-14 AS=8.65375e-14 PD=1.235e-06 PS=1.605e-06
mXI1.XI17.MM5 N_XI1.XI17.NET9_XI1.XI17.MM5_d N_XI1.XI17.NET2_XI1.XI17.MM5_g
+ N_GND!_XI1.XI17.MM4_d N_GND!_XI0.XI17.MM3_b NMOS_VTL L=5e-08 W=2e-07
+ AD=8.16875e-14 AS=8.65375e-14 PD=1.235e-06 PS=1.605e-06
mXI1.XI7.MM5 N_XI1.XI7.NET9_XI1.XI7.MM5_d N_XI1.XI7.NET2_XI1.XI7.MM5_g
+ N_GND!_XI1.XI7.MM4_d N_GND!_XI0.XI7.MM3_b NMOS_VTL L=5e-08 W=2e-07
+ AD=8.16875e-14 AS=8.65375e-14 PD=1.235e-06 PS=1.605e-06
mXI1.XI8.MM5 N_XI1.XI8.NET9_XI1.XI8.MM5_d N_XI1.XI8.NET2_XI1.XI8.MM5_g
+ N_GND!_XI1.XI8.MM4_d N_GND!_XI0.XI8.MM3_b NMOS_VTL L=5e-08 W=2e-07
+ AD=8.16875e-14 AS=8.65375e-14 PD=1.235e-06 PS=1.605e-06
mXI1.XI6.MM5 N_XI1.XI6.NET9_XI1.XI6.MM5_d N_XI1.XI6.NET2_XI1.XI6.MM5_g
+ N_GND!_XI1.XI6.MM4_d N_GND!_XI0.XI6.MM3_b NMOS_VTL L=5e-08 W=2e-07
+ AD=8.16875e-14 AS=8.65375e-14 PD=1.235e-06 PS=1.605e-06
mXI1.XI9.MM5 N_XI1.XI9.NET9_XI1.XI9.MM5_d N_XI1.XI9.NET2_XI1.XI9.MM5_g
+ N_GND!_XI1.XI9.MM4_d N_GND!_XI0.XI9.MM3_b NMOS_VTL L=5e-08 W=2e-07
+ AD=8.16875e-14 AS=8.65375e-14 PD=1.235e-06 PS=1.605e-06
mXI1.XI4.MM5 N_XI1.XI4.NET9_XI1.XI4.MM5_d N_XI1.XI4.NET2_XI1.XI4.MM5_g
+ N_GND!_XI1.XI4.MM4_d N_GND!_XI0.XI4.MM3_b NMOS_VTL L=5e-08 W=2e-07
+ AD=8.16875e-14 AS=8.65375e-14 PD=1.235e-06 PS=1.605e-06
mXI1.XI5.MM5 N_XI1.XI5.NET9_XI1.XI5.MM5_d N_XI1.XI5.NET2_XI1.XI5.MM5_g
+ N_GND!_XI1.XI5.MM4_d N_GND!_XI0.XI5.MM3_b NMOS_VTL L=5e-08 W=2e-07
+ AD=8.16875e-14 AS=8.65375e-14 PD=1.235e-06 PS=1.605e-06
mXI1.XI3.MM5 N_XI1.XI3.NET9_XI1.XI3.MM5_d N_XI1.XI3.NET2_XI1.XI3.MM5_g
+ N_GND!_XI1.XI3.MM4_d N_GND!_XI0.XI3.MM3_b NMOS_VTL L=5e-08 W=2e-07
+ AD=8.16875e-14 AS=8.65375e-14 PD=1.235e-06 PS=1.605e-06
mXI1.XI0.MM5 N_XI1.XI0.NET9_XI1.XI0.MM5_d N_XI1.XI0.NET2_XI1.XI0.MM5_g
+ N_GND!_XI1.XI0.MM4_d N_GND!_XI0.XI0.MM3_b NMOS_VTL L=5e-08 W=2e-07
+ AD=8.16875e-14 AS=8.65375e-14 PD=1.235e-06 PS=1.605e-06
mXI1.XI14.MM2 N_BL1_XI1.XI14.MM2_d N_WL15_XI1.XI14.MM2_g
+ N_XI1.XI14.NET9_XI1.XI14.MM5_d N_GND!_XI0.XI14.MM3_b NMOS_VTL L=5e-08
+ W=1.75e-07 AD=4.1125e-14 AS=8.16875e-14 PD=8.2e-07 PS=1.235e-06
mXI1.XI15.MM2 N_BL1_XI1.XI15.MM2_d N_WL14_XI1.XI15.MM2_g
+ N_XI1.XI15.NET9_XI1.XI15.MM5_d N_GND!_XI0.XI15.MM3_b NMOS_VTL L=5e-08
+ W=1.75e-07 AD=4.1125e-14 AS=8.16875e-14 PD=8.2e-07 PS=1.235e-06
mXI1.XI13.MM2 N_BL1_XI1.XI13.MM2_d N_WL13_XI1.XI13.MM2_g
+ N_XI1.XI13.NET9_XI1.XI13.MM5_d N_GND!_XI0.XI13.MM3_b NMOS_VTL L=5e-08
+ W=1.75e-07 AD=4.1125e-14 AS=8.16875e-14 PD=8.2e-07 PS=1.235e-06
mXI1.XI16.MM2 N_BL1_XI1.XI16.MM2_d N_WL12_XI1.XI16.MM2_g
+ N_XI1.XI16.NET9_XI1.XI16.MM5_d N_GND!_XI0.XI16.MM3_b NMOS_VTL L=5e-08
+ W=1.75e-07 AD=4.1125e-14 AS=8.16875e-14 PD=8.2e-07 PS=1.235e-06
mXI1.XI11.MM2 N_BL1_XI1.XI11.MM2_d N_WL11_XI1.XI11.MM2_g
+ N_XI1.XI11.NET9_XI1.XI11.MM5_d N_GND!_XI0.XI11.MM3_b NMOS_VTL L=5e-08
+ W=1.75e-07 AD=4.1125e-14 AS=8.16875e-14 PD=8.2e-07 PS=1.235e-06
mXI1.XI12.MM2 N_BL1_XI1.XI12.MM2_d N_WL10_XI1.XI12.MM2_g
+ N_XI1.XI12.NET9_XI1.XI12.MM5_d N_GND!_XI0.XI12.MM3_b NMOS_VTL L=5e-08
+ W=1.75e-07 AD=4.1125e-14 AS=8.16875e-14 PD=8.2e-07 PS=1.235e-06
mXI1.XI10.MM2 N_BL1_XI1.XI10.MM2_d N_WL9_XI1.XI10.MM2_g
+ N_XI1.XI10.NET9_XI1.XI10.MM5_d N_GND!_XI0.XI10.MM3_b NMOS_VTL L=5e-08
+ W=1.75e-07 AD=4.1125e-14 AS=8.16875e-14 PD=8.2e-07 PS=1.235e-06
mXI1.XI17.MM2 N_BL1_XI1.XI17.MM2_d N_WL8_XI1.XI17.MM2_g
+ N_XI1.XI17.NET9_XI1.XI17.MM5_d N_GND!_XI0.XI17.MM3_b NMOS_VTL L=5e-08
+ W=1.75e-07 AD=4.1125e-14 AS=8.16875e-14 PD=8.2e-07 PS=1.235e-06
mXI1.XI7.MM2 N_BL1_XI1.XI7.MM2_d N_WL7_XI1.XI7.MM2_g
+ N_XI1.XI7.NET9_XI1.XI7.MM5_d N_GND!_XI0.XI7.MM3_b NMOS_VTL L=5e-08 W=1.75e-07
+ AD=4.1125e-14 AS=8.16875e-14 PD=8.2e-07 PS=1.235e-06
mXI1.XI8.MM2 N_BL1_XI1.XI8.MM2_d N_WL6_XI1.XI8.MM2_g
+ N_XI1.XI8.NET9_XI1.XI8.MM5_d N_GND!_XI0.XI8.MM3_b NMOS_VTL L=5e-08 W=1.75e-07
+ AD=4.1125e-14 AS=8.16875e-14 PD=8.2e-07 PS=1.235e-06
mXI1.XI6.MM2 N_BL1_XI1.XI6.MM2_d N_WL5_XI1.XI6.MM2_g
+ N_XI1.XI6.NET9_XI1.XI6.MM5_d N_GND!_XI0.XI6.MM3_b NMOS_VTL L=5e-08 W=1.75e-07
+ AD=4.1125e-14 AS=8.16875e-14 PD=8.2e-07 PS=1.235e-06
mXI1.XI9.MM2 N_BL1_XI1.XI9.MM2_d N_WL4_XI1.XI9.MM2_g
+ N_XI1.XI9.NET9_XI1.XI9.MM5_d N_GND!_XI0.XI9.MM3_b NMOS_VTL L=5e-08 W=1.75e-07
+ AD=4.1125e-14 AS=8.16875e-14 PD=8.2e-07 PS=1.235e-06
mXI1.XI4.MM2 N_BL1_XI1.XI4.MM2_d N_WL3_XI1.XI4.MM2_g
+ N_XI1.XI4.NET9_XI1.XI4.MM5_d N_GND!_XI0.XI4.MM3_b NMOS_VTL L=5e-08 W=1.75e-07
+ AD=4.1125e-14 AS=8.16875e-14 PD=8.2e-07 PS=1.235e-06
mXI1.XI5.MM2 N_BL1_XI1.XI5.MM2_d N_WL2_XI1.XI5.MM2_g
+ N_XI1.XI5.NET9_XI1.XI5.MM5_d N_GND!_XI0.XI5.MM3_b NMOS_VTL L=5e-08 W=1.75e-07
+ AD=4.1125e-14 AS=8.16875e-14 PD=8.2e-07 PS=1.235e-06
mXI1.XI3.MM2 N_BL1_XI1.XI3.MM2_d N_WL1_XI1.XI3.MM2_g
+ N_XI1.XI3.NET9_XI1.XI3.MM5_d N_GND!_XI0.XI3.MM3_b NMOS_VTL L=5e-08 W=1.75e-07
+ AD=4.1125e-14 AS=8.16875e-14 PD=8.2e-07 PS=1.235e-06
mXI1.XI0.MM2 N_BL1_XI1.XI0.MM2_d N_WL0_XI1.XI0.MM2_g
+ N_XI1.XI0.NET9_XI1.XI0.MM5_d N_GND!_XI0.XI0.MM3_b NMOS_VTL L=5e-08 W=1.75e-07
+ AD=4.1125e-14 AS=8.16875e-14 PD=8.2e-07 PS=1.235e-06
mXI3.XI14.MM3 N_XI3.XI14.NET2_XI3.XI14.MM3_d N_WL15_XI3.XI14.MM3_g
+ N_!BL2_XI3.XI14.MM3_s N_GND!_XI0.XI14.MM3_b NMOS_VTL L=5e-08 W=1.75e-07
+ AD=8.51875e-14 AS=4.1125e-14 PD=1.27e-06 PS=8.2e-07
mXI3.XI15.MM3 N_XI3.XI15.NET2_XI3.XI15.MM3_d N_WL14_XI3.XI15.MM3_g
+ N_!BL2_XI3.XI15.MM3_s N_GND!_XI0.XI15.MM3_b NMOS_VTL L=5e-08 W=1.75e-07
+ AD=8.51875e-14 AS=4.1125e-14 PD=1.27e-06 PS=8.2e-07
mXI3.XI13.MM3 N_XI3.XI13.NET2_XI3.XI13.MM3_d N_WL13_XI3.XI13.MM3_g
+ N_!BL2_XI3.XI13.MM3_s N_GND!_XI0.XI13.MM3_b NMOS_VTL L=5e-08 W=1.75e-07
+ AD=8.51875e-14 AS=4.1125e-14 PD=1.27e-06 PS=8.2e-07
mXI3.XI16.MM3 N_XI3.XI16.NET2_XI3.XI16.MM3_d N_WL12_XI3.XI16.MM3_g
+ N_!BL2_XI3.XI16.MM3_s N_GND!_XI0.XI16.MM3_b NMOS_VTL L=5e-08 W=1.75e-07
+ AD=8.51875e-14 AS=4.1125e-14 PD=1.27e-06 PS=8.2e-07
mXI3.XI11.MM3 N_XI3.XI11.NET2_XI3.XI11.MM3_d N_WL11_XI3.XI11.MM3_g
+ N_!BL2_XI3.XI11.MM3_s N_GND!_XI0.XI11.MM3_b NMOS_VTL L=5e-08 W=1.75e-07
+ AD=8.51875e-14 AS=4.1125e-14 PD=1.27e-06 PS=8.2e-07
mXI3.XI12.MM3 N_XI3.XI12.NET2_XI3.XI12.MM3_d N_WL10_XI3.XI12.MM3_g
+ N_!BL2_XI3.XI12.MM3_s N_GND!_XI0.XI12.MM3_b NMOS_VTL L=5e-08 W=1.75e-07
+ AD=8.51875e-14 AS=4.1125e-14 PD=1.27e-06 PS=8.2e-07
mXI3.XI10.MM3 N_XI3.XI10.NET2_XI3.XI10.MM3_d N_WL9_XI3.XI10.MM3_g
+ N_!BL2_XI3.XI10.MM3_s N_GND!_XI0.XI10.MM3_b NMOS_VTL L=5e-08 W=1.75e-07
+ AD=8.51875e-14 AS=4.1125e-14 PD=1.27e-06 PS=8.2e-07
mXI3.XI17.MM3 N_XI3.XI17.NET2_XI3.XI17.MM3_d N_WL8_XI3.XI17.MM3_g
+ N_!BL2_XI3.XI17.MM3_s N_GND!_XI0.XI17.MM3_b NMOS_VTL L=5e-08 W=1.75e-07
+ AD=8.51875e-14 AS=4.1125e-14 PD=1.27e-06 PS=8.2e-07
mXI3.XI7.MM3 N_XI3.XI7.NET2_XI3.XI7.MM3_d N_WL7_XI3.XI7.MM3_g
+ N_!BL2_XI3.XI7.MM3_s N_GND!_XI0.XI7.MM3_b NMOS_VTL L=5e-08 W=1.75e-07
+ AD=8.51875e-14 AS=4.1125e-14 PD=1.27e-06 PS=8.2e-07
mXI3.XI8.MM3 N_XI3.XI8.NET2_XI3.XI8.MM3_d N_WL6_XI3.XI8.MM3_g
+ N_!BL2_XI3.XI8.MM3_s N_GND!_XI0.XI8.MM3_b NMOS_VTL L=5e-08 W=1.75e-07
+ AD=8.51875e-14 AS=4.1125e-14 PD=1.27e-06 PS=8.2e-07
mXI3.XI6.MM3 N_XI3.XI6.NET2_XI3.XI6.MM3_d N_WL5_XI3.XI6.MM3_g
+ N_!BL2_XI3.XI6.MM3_s N_GND!_XI0.XI6.MM3_b NMOS_VTL L=5e-08 W=1.75e-07
+ AD=8.51875e-14 AS=4.1125e-14 PD=1.27e-06 PS=8.2e-07
mXI3.XI9.MM3 N_XI3.XI9.NET2_XI3.XI9.MM3_d N_WL4_XI3.XI9.MM3_g
+ N_!BL2_XI3.XI9.MM3_s N_GND!_XI0.XI9.MM3_b NMOS_VTL L=5e-08 W=1.75e-07
+ AD=8.51875e-14 AS=4.1125e-14 PD=1.27e-06 PS=8.2e-07
mXI3.XI4.MM3 N_XI3.XI4.NET2_XI3.XI4.MM3_d N_WL3_XI3.XI4.MM3_g
+ N_!BL2_XI3.XI4.MM3_s N_GND!_XI0.XI4.MM3_b NMOS_VTL L=5e-08 W=1.75e-07
+ AD=8.51875e-14 AS=4.1125e-14 PD=1.27e-06 PS=8.2e-07
mXI3.XI5.MM3 N_XI3.XI5.NET2_XI3.XI5.MM3_d N_WL2_XI3.XI5.MM3_g
+ N_!BL2_XI3.XI5.MM3_s N_GND!_XI0.XI5.MM3_b NMOS_VTL L=5e-08 W=1.75e-07
+ AD=8.51875e-14 AS=4.1125e-14 PD=1.27e-06 PS=8.2e-07
mXI3.XI3.MM3 N_XI3.XI3.NET2_XI3.XI3.MM3_d N_WL1_XI3.XI3.MM3_g
+ N_!BL2_XI3.XI3.MM3_s N_GND!_XI0.XI3.MM3_b NMOS_VTL L=5e-08 W=1.75e-07
+ AD=8.51875e-14 AS=4.1125e-14 PD=1.27e-06 PS=8.2e-07
mXI3.XI0.MM3 N_XI3.XI0.NET2_XI3.XI0.MM3_d N_WL0_XI3.XI0.MM3_g
+ N_!BL2_XI3.XI0.MM3_s N_GND!_XI0.XI0.MM3_b NMOS_VTL L=5e-08 W=1.75e-07
+ AD=8.51875e-14 AS=4.1125e-14 PD=1.27e-06 PS=8.2e-07
mXI3.XI14.MM4 N_GND!_XI3.XI14.MM4_d N_XI3.XI14.NET9_XI3.XI14.MM4_g
+ N_XI3.XI14.NET2_XI3.XI14.MM3_d N_GND!_XI0.XI14.MM3_b NMOS_VTL L=5e-08 W=2e-07
+ AD=8.65375e-14 AS=8.51875e-14 PD=1.605e-06 PS=1.27e-06